data_1
_audit_creation_method   'Generated by vasp2cif'
_cell_length_a    20.09
_cell_length_b    19.738
_cell_length_c    13.142
_cell_angle_alpha    90.0
_cell_angle_beta    90.0
_cell_angle_gamma    90.0

_symmetry_space_group_name_H-M    'P 1'
loop_
_atom_site_label
_atom_site_type_symbol
_atom_site_fract_x
_atom_site_fract_y
_atom_site_fract_z
_atom_site_occupancy
C1   C   0.500684587865615   0.435471972973554   0.509841177788625   1.0
C2   C   0.504275374861157   0.317882045533430   0.506314023958517   1.0
H3   H   0.499939466639577   0.482735344517721   0.555311169406861   1.0
H4   H   0.507090811585405   0.421449715785955   0.309618830933469   1.0
H5   H   0.506601949785246   0.278466249894972   0.564105397066186   1.0
H6   H   0.459988846343467   0.313781460555201   0.457408706735052   1.0
H7   H   0.550060310806700   0.319606083987508   0.461367655935039   1.0
Si8   Si   0.422716025219150   0.069747804071288   0.216097783764278   1.0
Si9   Si   0.327616810225257   0.034955796649490   0.379669914015549   1.0
Si10   Si   0.278198214923924   0.054953767518744   0.592689428296838   1.0
Si11   Si   0.124379310063638   0.053359625232463   0.573222972908518   1.0
Si12   Si   0.070965812699539   0.036944785884464   0.351469941345394   1.0
Si13   Si   0.203889317672292   0.070300463904628   0.250150851327895   1.0
Si14   Si   0.421380691391927   0.827399461477718   0.205895111138269   1.0
Si15   Si   0.316748736875895   0.877106215827313   0.362726351232388   1.0
Si16   Si   0.275074598811273   0.829300166658080   0.567543458016276   1.0
Si17   Si   0.118712418163015   0.828708992735895   0.544744292377994   1.0
Si18   Si   0.066324677196740   0.879417253507131   0.328624280193020   1.0
Si19   Si   0.196244518307552   0.828678636900142   0.233056452445676   1.0
Si20   Si   0.078434937447540   0.931337595191075   0.715281559707293   1.0
Si21   Si   0.176300131116690   0.965357704661126   0.875883776028324   1.0
Si22   Si   0.219156593150644   0.946988353615221   0.092642743702299   1.0
Si23   Si   0.374547896191307   0.946449985282446   0.072108609598507   1.0
Si24   Si   0.429752865063647   0.963637910290374   0.851351973052155   1.0
Si25   Si   0.298621348857608   0.931649934188010   0.747491656725789   1.0
Si26   Si   0.079016671739760   0.172719598348330   0.704914096205457   1.0
Si27   Si   0.183809246102022   0.123069146282876   0.862951442109113   1.0
Si28   Si   0.228063675223660   0.173115696904017   0.068828701710004   1.0
Si29   Si   0.382476351776160   0.172030870951581   0.045999366016323   1.0
Si30   Si   0.431856647652768   0.120021828991629   0.831043177476460   1.0
Si31   Si   0.303461579431520   0.171630062909303   0.733198131560122   1.0
Si32   Si   0.922882759634870   0.429605494165900   0.339362400995109   1.0
Si33   Si   0.828643451946431   0.464657832030653   0.175167042822575   1.0
Si34   Si   0.780356828561247   0.446695853251320   0.959569508360119   1.0
Si35   Si   0.625369507869140   0.447783269841813   0.975428286631044   1.0
Si36   Si   0.574276695843837   0.464400675952945   0.196943270035224   1.0
Si37   Si   0.703932867250014   0.431152087115035   0.305035411966452   1.0
Si38   Si   0.919264864142300   0.672620146058620   0.348725222448084   1.0
Si39   Si   0.815502002834144   0.622184767603481   0.191947864335678   1.0
Si40   Si   0.775600328384607   0.672532397110001   0.988853296066245   1.0
Si41   Si   0.619201210136768   0.672849971747161   0.006841943551656   1.0
Si42   Si   0.567513409131584   0.620899345566739   0.216991129289048   1.0
Si43   Si   0.695134259365391   0.672211812893876   0.316611578980011   1.0
Si44   Si   0.578909848253681   0.570924658318045   0.836302303965794   1.0
Si45   Si   0.677124577018930   0.534761310183830   0.674758162607177   1.0
Si46   Si   0.719475216098684   0.554819516886892   0.458396146571466   1.0
Si47   Si   0.874758553401314   0.552251978202904   0.478770879608727   1.0
Si48   Si   0.929262066607681   0.537298012927192   0.701419216614884   1.0
Si49   Si   0.798554367459399   0.570657491286855   0.808085850428061   1.0
Si50   Si   0.579837330910493   0.328131892328562   0.846016876588284   1.0
Si51   Si   0.686421853960433   0.377865074470960   0.692690867138047   1.0
Si52   Si   0.727785233986664   0.328155581133407   0.485186370827931   1.0
Si53   Si   0.881721073441846   0.327753864716850   0.507060593976328   1.0
Si54   Si   0.933683681740956   0.379816547053429   0.716724029737374   1.0
Si55   Si   0.806463767673176   0.328655514629895   0.817946220162124   1.0
Si56   Si   0.579384854401309   0.929674893100980   0.836345971593756   1.0
Si57   Si   0.676958770164946   0.965634975238335   0.674800643276072   1.0
Si58   Si   0.719349128525920   0.945647125190747   0.458444772105968   1.0
Si59   Si   0.874668195768720   0.948053569009793   0.478950422568625   1.0
Si60   Si   0.929267353733628   0.964946465677165   0.702652510687624   1.0
Si61   Si   0.798733585754247   0.929948463067287   0.808280128707299   1.0
Si62   Si   0.685317464268520   0.122125858642474   0.692391891888879   1.0
Si63   Si   0.727570882828563   0.171941469158792   0.485190740429396   1.0
Si64   Si   0.881613907563814   0.172562487166799   0.507027150062956   1.0
Si65   Si   0.933716189731493   0.121992619853199   0.716660616275115   1.0
Si66   Si   0.805885435979183   0.172093759001647   0.815905498621878   1.0
Si67   Si   0.922141087230330   0.070625196548195   0.339427177746047   1.0
Si68   Si   0.828400060716709   0.035379674725303   0.175240513636127   1.0
Si69   Si   0.780615369767206   0.054704015972940   0.958776404687669   1.0
Si70   Si   0.624900946535778   0.050202397498786   0.981879804116524   1.0
Si71   Si   0.571917828784182   0.035332105705243   0.206462601848868   1.0
Si72   Si   0.703743406742724   0.069249498464550   0.304727491930158   1.0
Si73   Si   0.919068901745702   0.827659289482128   0.348780444615634   1.0
Si74   Si   0.815373116592474   0.878291996548734   0.192268555109972   1.0
Si75   Si   0.775333744230780   0.827743164445406   0.988162480337579   1.0
Si76   Si   0.619176582927358   0.827516514260755   0.006668867340692   1.0
Si77   Si   0.567334523994975   0.878703794256426   0.216362025719577   1.0
Si78   Si   0.694222368143624   0.828100334415675   0.316209122754257   1.0
Si79   Si   0.078568578733338   0.569020873720075   0.715275273220639   1.0
Si80   Si   0.176352227370549   0.534882471383977   0.875962323123835   1.0
Si81   Si   0.220474394685936   0.553250273849061   0.092153908405453   1.0
Si82   Si   0.375712409957831   0.553387210338510   0.073734491506057   1.0
Si83   Si   0.428746894376772   0.537546868305862   0.851252189843128   1.0
Si84   Si   0.298194275701866   0.569518481561382   0.746829475839966   1.0
Si85   Si   0.079097507047791   0.327778789547968   0.704818919058487   1.0
Si86   Si   0.184653350797286   0.377411729099394   0.863039511801581   1.0
Si87   Si   0.228250829504361   0.327782428000619   0.070092581885928   1.0
Si88   Si   0.381950419022159   0.327204684032004   0.041276684656578   1.0
Si89   Si   0.433364990285424   0.381448946664037   0.832898947729097   1.0
Si90   Si   0.304257166839389   0.329239953343253   0.736622670282412   1.0
Si91   Si   0.327536815591817   0.465407961064632   0.380463678957545   1.0
Si92   Si   0.279068820765663   0.445790896926009   0.593625882327773   1.0
Si93   Si   0.125044100271714   0.447315991192561   0.571983923971511   1.0
Si94   Si   0.073352754942703   0.462089073033158   0.348154285166144   1.0
Si95   Si   0.205313800547731   0.429935628749989   0.249989174903845   1.0
Si96   Si   0.421178912414765   0.672414390445093   0.205672665072060   1.0
Si97   Si   0.316818604827819   0.622727852577938   0.362596978986340   1.0
Si98   Si   0.275771222078212   0.673976909891485   0.567270915335789   1.0
Si99   Si   0.119151136712754   0.671900629791179   0.545495219959652   1.0
Si100   Si   0.066153323666890   0.620510172634684   0.330472989008947   1.0
Si101   Si   0.195180743349365   0.671477809913888   0.233769588312736   1.0
Si102   Si   0.580317443679514   0.171215433448763   0.847464650669608   1.0
Al103   Al   0.415350462260330   0.426842968713053   0.214454095110052   1.0
O104   O   0.503285070576039   0.074980054740723   0.229272493676674   1.0
O105   O   0.389598821225329   0.074993558754585   0.329203716775092   1.0
O106   O   0.399651164148982   0.135754285840159   0.153648687355768   1.0
O107   O   0.396608791247526   0.003592494024726   0.151690550252465   1.0
O108   O   0.330152167490617   0.041676910438838   0.500607326546443   1.0
O109   O   0.328319591350401   0.957105783477343   0.342630381115263   1.0
O110   O   0.259969772984697   0.067892663531953   0.338836781236998   1.0
O111   O   0.288572173278339   0.132166421320118   0.627822417462181   1.0
O112   O   0.202886802387352   0.046415580401775   0.550048544957163   1.0
O113   O   0.292863536898411   0.002092066777884   0.683399189043507   1.0
O114   O   0.106682682947220   0.128653376631424   0.609323424068264   1.0
O115   O   0.082598063560016   0.038181569408501   0.472223863199773   1.0
O116   O   0.129925731181612   0.078863440318126   0.298487592733763   1.0
O117   O   0.074802145188130   0.960687138102148   0.307071650078092   1.0
O118   O   0.221026458917522   0.128619781218738   0.168695629216141   1.0
O119   O   0.492413242835611   0.857149411927196   0.242619656688855   1.0
O120   O   0.367850015945249   0.832135690773678   0.296148884640100   1.0
O121   O   0.428368917445875   0.750011534136422   0.168567525114850   1.0
O122   O   0.325698310124379   0.860736334505972   0.483305176738907   1.0
O123   O   0.242433507049991   0.857196844659661   0.324147605933377   1.0
O124   O   0.296956120071724   0.752374087567843   0.583436026664968   1.0
O125   O   0.199476106214385   0.828658647964491   0.524137644295126   1.0
O126   O   0.093268090650320   0.750033544254327   0.546314816360086   1.0
O127   O   0.081453388236026   0.867854236825461   0.450057624347080   1.0
O128   O   0.117137461404656   0.839295215308754   0.250333207052914   1.0
O129   O   0.213890311076393   0.750008008697202   0.220384528145504   1.0
O130   O   -0.000553828026165   0.928636091624117   0.731492446122510   1.0
O131   O   0.113865238740128   0.928536411798796   0.824144884121276   1.0
O132   O   0.100436746636950   0.864280362382476   0.653598341836428   1.0
O133   O   0.100371325617056   -0.000011750424801   0.657467429303764   1.0
O134   O   0.167977659218741   0.960713965140258   0.996229339084701   1.0
O135   O   0.171059205904464   0.043020411117563   0.842584543533059   1.0
O136   O   0.246197593828680   0.932140068751716   0.840397429800284   1.0
O137   O   0.210033120591240   0.867886036174347   0.127754926653513   1.0
O138   O   0.295721660565327   0.953587812377491   0.050064422270541   1.0
O139   O   0.206795405388337   -0.000089833645795   0.186949815577026   1.0
O140   O   0.392493315339908   0.871484359142283   0.112956418283592   1.0
O141   O   0.418572726682101   0.960728405707648   0.972237072945753   1.0
O142   O   0.370967251185363   0.921405967208392   0.798101433069127   1.0
O143   O   0.424312105311873   0.039317019026132   0.805628334180315   1.0
O144   O   0.282155989594529   0.867861830991282   0.673852617303668   1.0
O145   O   0.008492893242218   0.143082734889370   0.745921423101818   1.0
O146   O   0.132234961121515   0.167872635717317   0.796110929417845   1.0
O147   O   0.071824242500582   0.250029479838480   0.664904638229164   1.0
O148   O   0.181400199961215   0.139277545761900   0.983268159395859   1.0
O149   O   0.257647292179060   0.142833524678451   0.824105130466505   1.0
O150   O   0.206751355720610   0.250021427004970   0.087093422134233   1.0
O151   O   0.302905599986782   0.167863525212372   0.027818887040388   1.0
O152   O   0.406812486893815   0.249891669893319   0.042594772718568   1.0
O153   O   0.417704021220734   0.132134334305086   0.951551468850436   1.0
O154   O   0.382397516509875   0.160722435388860   0.751650959531568   1.0
O155   O   0.285448076233737   0.250081244757349   0.720374776797518   1.0
O156   O   0.001391914542251   0.428621554570870   0.323694342643056   1.0
O157   O   0.889986506368700   0.425001918283267   0.227724477671271   1.0
O158   O   0.899626708845645   0.364265541803989   0.401887349790878   1.0
O159   O   0.896545339503069   0.496441270063108   0.395987410868624   1.0
O160   O   0.832138172827955   0.460713462494256   0.051668196696195   1.0
O161   O   0.828978206554329   0.542900102029714   0.209314338724328   1.0
O162   O   0.760392651201565   0.432133735527158   0.218067048979041   1.0
O163   O   0.788038750535140   0.369185703801193   0.920663347978210   1.0
O164   O   0.703798648741518   0.453590318207315   0.996038431630445   1.0
O165   O   0.793257962693241   0.499985365185887   0.868585110873373   1.0
O166   O   0.606822841586840   0.371448716792955   0.942561062022994   1.0
O167   O   0.584415090062438   0.464301977470277   0.076455407545398   1.0
O168   O   0.629866363786598   0.421362638013308   0.257024798766680   1.0
O169   O   0.575500899795377   0.540408481383433   0.239000890327347   1.0
O170   O   0.720318913530992   0.369799989169110   0.380314460126685   1.0
O171   O   0.989854630853460   0.645367052502076   0.305668138630880   1.0
O172   O   0.868050019571354   0.667880740210795   0.251675539937296   1.0
O173   O   0.928125952495228   0.750015615329575   0.387056883299359   1.0
O174   O   0.825684538070827   0.639289078204910   0.072222745645646   1.0
O175   O   0.739982239297117   0.639288097002920   0.227704504014266   1.0
O176   O   0.793388868439045   0.750018486884788   0.968510435574611   1.0
O177   O   0.698730369486107   0.671308121965021   0.023781264242107   1.0
O178   O   0.592576794947425   0.750019020013427   0.009241484379529   1.0
O179   O   0.582123090203529   0.632138533954399   0.096162735946419   1.0
O180   O   0.617138806885576   0.660733914788044   0.294318985645735   1.0
O181   O   0.713878379813986   0.750027878391437   0.335163093955962   1.0
O182   O   0.499601192147523   0.571446340850866   0.824086121101277   1.0
O183   O   0.613784270717287   0.571524776151181   0.724175218712825   1.0
O184   O   0.600438912922527   0.635748146762047   0.901861230975512   1.0
O185   O   0.602873978739256   0.503560543048721   0.894418034904437   1.0
O186   O   0.668092106048199   0.539292176336909   0.551536263099105   1.0
O187   O   0.671866018916575   0.457112855011709   0.712951749723263   1.0
O188   O   0.746163734757865   0.567872906477770   0.715169270061374   1.0
O189   O   0.710785755204350   0.632134648857386   0.418406880655255   1.0
O190   O   0.795730417439510   0.546421273804144   0.494560340128965   1.0
O191   O   0.706721279674616   0.500090692762047   0.368581914013639   1.0
O192   O   0.893322528714623   0.628635500878253   0.446227466823315   1.0
O193   O   0.914789108492326   0.535730666826845   0.579787082899389   1.0
O194   O   0.871023909495898   0.578628361537644   0.757489783806632   1.0
O195   O   0.925510615567030   0.459613376046788   0.739026319739805   1.0
O196   O   0.781445582606684   0.632149799850254   0.883319903658819   1.0
O197   O   0.508448617321025   0.357215437975857   0.809679899954734   1.0
O198   O   0.631440620960675   0.332139816186484   0.750140066379864   1.0
O199   O   0.571871447204186   0.249976616317399   0.879664179417554   1.0
O200   O   0.681412160566550   0.360735544506205   0.572264724509027   1.0
O201   O   0.761425757834777   0.360720706881138   0.727843170183480   1.0
O202   O   0.706771279870940   0.250021466355920   0.468510133134007   1.0
O203   O   0.802879662997887   0.332143385529221   0.527765638956682   1.0
O204   O   0.906784532520673   0.250018840238018   0.509264951345689   1.0
O205   O   0.918052774848045   0.367878840963699   0.596127535159907   1.0
O206   O   0.885196162007310   0.335758471623131   0.790722507293019   1.0
O207   O   0.786131453116876   0.250056234010276   0.831544048943546   1.0
O208   O   0.499666791420305   0.928585870597363   0.824103479063052   1.0
O209   O   0.613794743143682   0.928504685413163   0.724179647154153   1.0
O210   O   0.600422649360193   0.864284348115760   0.901851014197128   1.0
O211   O   0.604261657504158   0.996446715911361   0.894580712824631   1.0
O212   O   0.668084334640081   0.960714243405360   0.551569884440864   1.0
O213   O   0.671122507228002   0.042915487664903   0.712974295518501   1.0
O214   O   0.745714903105521   0.932134476929790   0.716563469748085   1.0
O215   O   0.710719550671409   0.867872957978139   0.418389389734650   1.0
O216   O   0.795728352576848   0.953586225176041   0.494561194671295   1.0
O217   O   0.706737751928295   -0.000039756027277   0.368566016982563   1.0
O218   O   0.893314345214862   0.871409095614336   0.446237180484316   1.0
O219   O   0.914795053843693   0.964339315418686   0.579852165404319   1.0
O220   O   0.871124602579755   0.921448752864442   0.757479383188396   1.0
O221   O   0.928173487145705   0.042782553512182   0.742624403970642   1.0
O222   O   0.782847147505175   0.867857709359371   0.883285438411493   1.0
O223   O   0.508156902447401   0.142863260053665   0.811137358780394   1.0
O224   O   0.631924627568535   0.167872806786618   0.751583812591035   1.0
O225   O   0.681410236733846   0.139274707608858   0.572252686067161   1.0
O226   O   0.760043458850481   0.139291646729925   0.727793287791744   1.0
O227   O   0.802876365550436   0.167865102737508   0.527764078745935   1.0
O228   O   0.918046804225503   0.132132438389209   0.596115827517358   1.0
O229   O   0.884476872630792   0.164354817346361   0.790289914678849   1.0
O230   O   0.000554179331958   0.071444359293058   0.324092869353687   1.0
O231   O   0.889980063394663   0.075006219100510   0.227701125545338   1.0
O232   O   0.899595501040972   0.135778831149071   0.401899401792860   1.0
O233   O   0.896542553086016   0.003566102710856   0.395989797809065   1.0
O234   O   0.832088277823419   0.039295420971566   0.051640675296173   1.0
O235   O   0.829019647042711   0.957160684108982   0.212965296440828   1.0
O236   O   0.759991223571072   0.067880281446508   0.216701467097015   1.0
O237   O   0.789299253106851   0.132140165266146   0.918380401476171   1.0
O238   O   0.704273186624200   0.046414288817125   0.994607358381487   1.0
O239   O   0.793275906259630   0.000083811878597   0.868604806343544   1.0
O240   O   0.609994348389433   0.125041948142485   0.938912184412983   1.0
O241   O   0.586088377395453   0.035713441953889   0.086875506201102   1.0
O242   O   0.629925021900099   0.078870710154711   0.257243973112750   1.0
O243   O   0.577404804021165   0.957309274743418   0.243141784926790   1.0
O244   O   0.720239288449442   0.130395874703003   0.380167780872406   1.0
O245   O   0.990016525859848   0.853594672508217   0.305603425223818   1.0
O246   O   0.868040299771035   0.832129757042349   0.251670932070394   1.0
O247   O   0.824291140857268   0.860729096166131   0.072260291759831   1.0
O248   O   0.739973762620145   0.860717832581425   0.227728006950885   1.0
O249   O   0.698697746430675   0.828764909046485   0.023780653714292   1.0
O250   O   0.582049473787397   0.867871962928168   0.096116808946630   1.0
O251   O   0.615568659425636   0.835633035081013   0.290300752175938   1.0
O252   O   -0.000505372227137   0.571432841906690   0.731485393823217   1.0
O253   O   0.113856711368867   0.571491556044869   0.824145217838272   1.0
O254   O   0.100446679912212   0.635757607186295   0.653608255339596   1.0
O255   O   0.099651398858800   0.500001388833424   0.657445366255472   1.0
O256   O   0.168026552880587   0.539296049274164   0.996218565148646   1.0
O257   O   0.171065862880696   0.457035132095112   0.842580541916943   1.0
O258   O   0.246226881554814   0.567872184254262   0.840413741310641   1.0
O259   O   0.210020166894079   0.632128969873048   0.127829433676579   1.0
O260   O   0.297079985552444   0.546423358999091   0.050050659614736   1.0
O261   O   0.207530113360008   0.500114116447370   0.186932158131128   1.0
O262   O   0.392520055604789   0.628607612604512   0.112950945986792   1.0
O263   O   0.418570977472819   0.539285189913041   0.972154385346393   1.0
O264   O   0.371424126459863   0.580675140491485   0.794430890391562   1.0
O265   O   0.425698983737548   0.460733129794566   0.805618626516036   1.0
O266   O   0.281435866327092   0.632160273404499   0.672250852842286   1.0
O267   O   0.008443670465690   0.357113974944271   0.745876780387245   1.0
O268   O   0.132347064877137   0.332140786748714   0.796075859916779   1.0
O269   O   0.181402019076484   0.360729751667952   0.983302592403813   1.0
O270   O   0.260939036407906   0.360719054344333   0.829256999632145   1.0
O271   O   0.302862350583297   0.332141059583064   0.027765387713853   1.0
O272   O   0.417166086911632   0.367875983964912   0.950076480086576   1.0
O273   O   0.382380613831494   0.339262324366054   0.762596734035243   1.0
O274   O   0.503878456549873   0.425003652893860   0.229397552301477   1.0
O275   O   0.386177121912778   0.421453198163454   0.335258324067872   1.0
O276   O   0.400452642172941   0.357134938709689   0.146436736316890   1.0
O277   O   0.399655054834933   0.499984732297375   0.153783153035750   1.0
O278   O   0.328990481299619   0.464282115553125   0.502001940084996   1.0
O279   O   0.329026004215918   0.542975084594812   0.342625711150858   1.0
O280   O   0.259965173003228   0.432124538675801   0.338886349598896   1.0
O281   O   0.289302414653377   0.367859232934296   0.629409365168884   1.0
O282   O   0.204240521008745   0.453588228993046   0.550086122751649   1.0
O283   O   0.292902226387796   0.498892005843835   0.683625048462691   1.0
O284   O   0.106723339133478   0.371439249021286   0.609274042643155   1.0
O285   O   0.085334203538385   0.464286155524571   0.468635718590873   1.0
O286   O   0.131431164698967   0.417851129187032   0.294542186376484   1.0
O287   O   0.074867365776816   0.539319932129713   0.307075171957428   1.0
O288   O   0.218012220769725   0.367842328262282   0.173818309069885   1.0
O289   O   0.492483360177049   0.642880114049115   0.242619649965656   1.0
O290   O   0.367853505366767   0.667875747806048   0.296149888936255   1.0
O291   O   0.325691016497596   0.639292388333276   0.483358436434882   1.0
O292   O   0.242388336222072   0.642834403160642   0.324126733352145   1.0
O293   O   0.199562053911663   0.671417796949735   0.524164191276862   1.0
O294   O   0.082297954058115   0.632143076588944   0.451553234656564   1.0
O295   O   0.114856333679379   0.664193056452890   0.253933063979919   1.0
O296   O   0.504309167633757   0.432182582757514   0.416786374190090   1.0
O297   O   0.498477445315672   0.379837824367863   0.567036630798062   1.0


