data_1
_audit_creation_method   'Generated by vasp2cif'
_cell_length_a    20.09
_cell_length_b    19.738
_cell_length_c    13.142
_cell_angle_alpha    90.0
_cell_angle_beta    90.0
_cell_angle_gamma    90.0

_symmetry_space_group_name_H-M    'P 1'
loop_
_atom_site_label
_atom_site_type_symbol
_atom_site_fract_x
_atom_site_fract_y
_atom_site_fract_z
_atom_site_occupancy
C1   C   0.500945010831590   0.564235841102857   0.501350323879656   1.0
C2   C   0.499246442265073   0.500768987914991   0.568621636311411   1.0
C3   C   0.500062560617092   0.435749158022335   0.510055927826215   1.0
C4   C   0.504278369263740   0.317912320824818   0.506331229983714   1.0
H5   H   0.503102950557824   0.612095662558595   0.544603055705524   1.0
H6   H   0.507095480096194   0.421443791310233   0.309659863770115   1.0
H7   H   0.456878203164209   0.503176312210855   0.621842926115820   1.0
H8   H   0.542518629124966   0.499993588069446   0.620829655273709   1.0
H9   H   0.457722207840417   0.564662652984031   0.449846251370505   1.0
H10   H   0.546965909346414   0.564273322972921   0.456283823817688   1.0
H11   H   0.506617750295342   0.278447286160853   0.564086845282632   1.0
H12   H   0.459993403324824   0.313770136855187   0.457409646193077   1.0
H13   H   0.550061812835713   0.319589592199991   0.461364346134081   1.0
Si14   Si   0.422722897724285   0.069773004248893   0.216107645797372   1.0
Si15   Si   0.327634154111788   0.034976922901024   0.379681330475530   1.0
Si16   Si   0.278210937129962   0.054964180370349   0.592701214834616   1.0
Si17   Si   0.124390363168302   0.053362154050317   0.573237212994224   1.0
Si18   Si   0.070986897296767   0.036941989304728   0.351485038389321   1.0
Si19   Si   0.203907195294996   0.070309793063049   0.250166779744039   1.0
Si20   Si   0.421384582812525   0.827401352624659   0.205897096848422   1.0
Si21   Si   0.316756676606643   0.877128193299018   0.362725598667983   1.0
Si22   Si   0.275076788880347   0.829317010004777   0.567553997851508   1.0
Si23   Si   0.118715947065044   0.828715763316153   0.544755685465397   1.0
Si24   Si   0.066334988150235   0.879421216980329   0.328631645603741   1.0
Si25   Si   0.196253501382425   0.828685885204882   0.233063956621612   1.0
Si26   Si   0.078436268857910   0.931342408060537   0.715298992017959   1.0
Si27   Si   0.176305753872868   0.965365683263417   0.875896274937249   1.0
Si28   Si   0.219165805537469   0.946996250385216   0.092659445952832   1.0
Si29   Si   0.374554669614199   0.946461223509441   0.072127041361915   1.0
Si30   Si   0.429759753694620   0.963655421935432   0.851366066892745   1.0
Si31   Si   0.298630420455979   0.931663604261646   0.747509174894152   1.0
Si32   Si   0.079032923256174   0.172718855360388   0.704931413823592   1.0
Si33   Si   0.183825898173287   0.123078340916030   0.862973443871321   1.0
Si34   Si   0.228084830938565   0.173117740140044   0.068845798911643   1.0
Si35   Si   0.382494810384555   0.172068635603306   0.046012150182393   1.0
Si36   Si   0.431860133226241   0.120036478141882   0.831064260128308   1.0
Si37   Si   0.303480361000239   0.171633030493194   0.733207687672708   1.0
Si38   Si   0.922894824845891   0.429593912415723   0.339369972942044   1.0
Si39   Si   0.828641888190918   0.464643572787559   0.175191561858519   1.0
Si40   Si   0.780361942781639   0.446679363026955   0.959596210999965   1.0
Si41   Si   0.625367699111297   0.447747699497454   0.975512169636016   1.0
Si42   Si   0.574212985871787   0.464348163392619   0.197036160816106   1.0
Si43   Si   0.703892153072840   0.431115331610379   0.305032378919586   1.0
Si44   Si   0.919281884197940   0.672624345817440   0.348734083888294   1.0
Si45   Si   0.815517976854977   0.622174698595640   0.191964788636428   1.0
Si46   Si   0.775613356302477   0.672538616873221   0.988877129690642   1.0
Si47   Si   0.619213547173699   0.672869539326917   0.006903179274088   1.0
Si48   Si   0.567498225015627   0.620862933822760   0.216983359670310   1.0
Si49   Si   0.695148538714878   0.672219268895545   0.316596066359134   1.0
Si50   Si   0.578939250268067   0.570925167157906   0.836494392991585   1.0
Si51   Si   0.677308959940583   0.534729733921950   0.674792639214668   1.0
Si52   Si   0.719525418223629   0.554789102998467   0.458379491440196   1.0
Si53   Si   0.874781531391614   0.552248070294056   0.478764089525294   1.0
Si54   Si   0.929275414059962   0.537280774720060   0.701422721217578   1.0
Si55   Si   0.798603668042270   0.570648817801507   0.808145290985489   1.0
Si56   Si   0.579821866406838   0.328119928255852   0.846003222951247   1.0
Si57   Si   0.686408561949615   0.377785634989881   0.692655304886222   1.0
Si58   Si   0.727759382377736   0.328150072800892   0.485182188207584   1.0
Si59   Si   0.881716021270636   0.327748443086804   0.507069134001778   1.0
Si60   Si   0.933697360003862   0.379805827458351   0.716728639050484   1.0
Si61   Si   0.806474276213847   0.328644946269073   0.817952289758392   1.0
Si62   Si   0.579388980244775   0.929690485211519   0.836356599746746   1.0
Si63   Si   0.676968032717440   0.965647619430199   0.674812701990217   1.0
Si64   Si   0.719356573477491   0.945659896390116   0.458455447548441   1.0
Si65   Si   0.874674035653008   0.948060228672303   0.478956049338135   1.0
Si66   Si   0.929274196239060   0.964955993425128   0.702659919947680   1.0
Si67   Si   0.798748766743179   0.929957829208895   0.808286459843020   1.0
Si68   Si   0.685314540154901   0.122138094097372   0.692393687132492   1.0
Si69   Si   0.727565091364055   0.171952621652353   0.485202201118674   1.0
Si70   Si   0.881614744216946   0.172562169750171   0.507035089254138   1.0
Si71   Si   0.933725946417928   0.121996073784601   0.716667658484862   1.0
Si72   Si   0.805891095628917   0.172089543877688   0.815909291793991   1.0
Si73   Si   0.922162745730718   0.070630598777104   0.339439853824145   1.0
Si74   Si   0.828405062916700   0.035388566250327   0.175258014433051   1.0
Si75   Si   0.780618622064711   0.054708251695074   0.958789661434366   1.0
Si76   Si   0.624903946757558   0.050213007950400   0.981895008261141   1.0
Si77   Si   0.571920263060005   0.035349820190336   0.206474769734793   1.0
Si78   Si   0.703747126372975   0.069261715860789   0.304744235808713   1.0
Si79   Si   0.919081967942566   0.827665811091586   0.348797150206811   1.0
Si80   Si   0.815385884657919   0.878300469181935   0.192285329936794   1.0
Si81   Si   0.775342684766777   0.827752290765162   0.988170752478276   1.0
Si82   Si   0.619185114699299   0.827532467822844   0.006680510313545   1.0
Si83   Si   0.567337859717571   0.878714555376701   0.216375008863014   1.0
Si84   Si   0.694231998444831   0.828113639270325   0.316213774899762   1.0
Si85   Si   0.078572711135252   0.569015866401489   0.715289735704342   1.0
Si86   Si   0.176348650675193   0.534864176183599   0.875990328583889   1.0
Si87   Si   0.220500135363453   0.553240001136395   0.092172741225196   1.0
Si88   Si   0.375723885122937   0.553343348362699   0.073867691992906   1.0
Si89   Si   0.428725756074176   0.537520221550272   0.851442089623621   1.0
Si90   Si   0.298152676027909   0.569516965192481   0.746849657001219   1.0
Si91   Si   0.079114404112200   0.327774636121304   0.704832254091838   1.0
Si92   Si   0.184673762829374   0.377394410733016   0.863066133227811   1.0
Si93   Si   0.228292324472812   0.327775742949239   0.070106772171133   1.0
Si94   Si   0.381968435466342   0.327211376716899   0.041351029901764   1.0
Si95   Si   0.433372604670706   0.381378909089811   0.832942681893213   1.0
Si96   Si   0.304281239500411   0.329225593862610   0.736622095581849   1.0
Si97   Si   0.327567168359920   0.465353004597422   0.380478754248912   1.0
Si98   Si   0.279081685112413   0.445754545891604   0.593584359191267   1.0
Si99   Si   0.125051422989361   0.447308705821818   0.571992601167349   1.0
Si100   Si   0.073369107137164   0.462082252985864   0.348157876291194   1.0
Si101   Si   0.205326951690800   0.429924017453175   0.249984112435577   1.0
Si102   Si   0.421183174124647   0.672404891161560   0.205643171478685   1.0
Si103   Si   0.316779517723604   0.622730104403960   0.362569376324774   1.0
Si104   Si   0.275764499784565   0.673984405256570   0.567266564446325   1.0
Si105   Si   0.119150156214880   0.671901117443436   0.545504848750235   1.0
Si106   Si   0.066167542851072   0.620505573386892   0.330480305379190   1.0
Si107   Si   0.195181380267407   0.671483173319000   0.233750253077590   1.0
Si108   Si   0.580314001379366   0.171217277316773   0.847461389901805   1.0
Al109   Al   0.415495481535575   0.426822328542070   0.214449153194783   1.0
O110   O   0.503285841891741   0.074979857020193   0.229272782868906   1.0
O111   O   0.389599041796847   0.074994287114637   0.329203513806930   1.0
O112   O   0.399651810583557   0.135754715127641   0.153648836888600   1.0
O113   O   0.396609362414679   0.003592916771877   0.151691575586784   1.0
O114   O   0.330152638535720   0.041677612194093   0.500610061147258   1.0
O115   O   0.328323197928557   0.957107447772210   0.342631674546489   1.0
O116   O   0.259970205428738   0.067892553638765   0.338838693320874   1.0
O117   O   0.288572349705667   0.132166520634916   0.627824263458778   1.0
O118   O   0.202887223398807   0.046415306396642   0.550049913551688   1.0
O119   O   0.292864067648521   0.002092061301557   0.683400236856354   1.0
O120   O   0.106683221472883   0.128653578732548   0.609323828312420   1.0
O121   O   0.082599004135996   0.038182116705163   0.472226496876204   1.0
O122   O   0.129930978863825   0.078849017351121   0.298490699581841   1.0
O123   O   0.074803493035298   0.960687261094470   0.307073189259266   1.0
O124   O   0.221027691552236   0.128619682455408   0.168696912975628   1.0
O125   O   0.492414907232437   0.857149421444884   0.242620017031854   1.0
O126   O   0.367851008149052   0.832135452402807   0.296149854371784   1.0
O127   O   0.428370795908522   0.750011582519577   0.168568666888261   1.0
O128   O   0.325698528709959   0.860736097873712   0.483306062709998   1.0
O129   O   0.242435978914707   0.857197150597073   0.324148895956050   1.0
O130   O   0.296957222761037   0.752374626364624   0.583437053333061   1.0
O131   O   0.199477966973309   0.828658295958944   0.524138670492906   1.0
O132   O   0.093269330165677   0.750033949363922   0.546315364845596   1.0
O133   O   0.081453616941329   0.867854217705303   0.450059083899131   1.0
O134   O   0.117138032554529   0.839294959315112   0.250334895640755   1.0
O135   O   0.213891655105388   0.750008380217586   0.220385347237641   1.0
O136   O   -0.000554349733619   0.928630667862124   0.731493599519966   1.0
O137   O   0.113867338110647   0.928536719859863   0.824146010810645   1.0
O138   O   0.100437750807872   0.864280818581175   0.653599181735108   1.0
O139   O   0.100371617291020   -0.000012078546247   0.657468014384350   1.0
O140   O   0.167977887633742   0.960713918032218   0.996230146098370   1.0
O141   O   0.171060787122858   0.043020891811750   0.842585213346814   1.0
O142   O   0.246199265062377   0.932140053048963   0.840399043418790   1.0
O143   O   0.210033254543750   0.867885838158180   0.127756109033391   1.0
O144   O   0.295722064186244   0.953587639033627   0.050065484588251   1.0
O145   O   0.206797969136991   -0.000089246794675   0.186950765123663   1.0
O146   O   0.392495070444782   0.871484410983724   0.112957258521610   1.0
O147   O   0.418572914346764   0.960728187213232   0.972238561729440   1.0
O148   O   0.370969340131279   0.921406298798420   0.798101985958005   1.0
O149   O   0.424312284599128   0.039316984017387   0.805629360368545   1.0
O150   O   0.282157484323502   0.867862215853475   0.673853997697074   1.0
O151   O   0.008494358679856   0.143084528625366   0.745922812362321   1.0
O152   O   0.132236693398402   0.167872704987031   0.796111752756921   1.0
O153   O   0.071825917376117   0.250030598078987   0.664905776412553   1.0
O154   O   0.181400411598092   0.139277579835268   0.983270627182195   1.0
O155   O   0.257648764083673   0.142834077196429   0.824105193322960   1.0
O156   O   0.206752614667569   0.250021849239201   0.087094201846491   1.0
O157   O   0.302906117597760   0.167863540383697   0.027820067543619   1.0
O158   O   0.406813064237054   0.249890004894897   0.042592404456261   1.0
O159   O   0.417705219792970   0.132134458319892   0.951553830691491   1.0
O160   O   0.382398118713753   0.160722439994620   0.751651456656550   1.0
O161   O   0.285446607850357   0.250080945530037   0.720375450293344   1.0
O162   O   0.001393784735158   0.428622716508173   0.323695185265544   1.0
O163   O   0.889986856158380   0.425001881319182   0.227726351814654   1.0
O164   O   0.899628558494450   0.364265663661490   0.401888501127950   1.0
O165   O   0.896546512983185   0.496441431386910   0.395987195054565   1.0
O166   O   0.832139831153908   0.460713639862348   0.051668864811235   1.0
O167   O   0.828979878655474   0.542900074735625   0.209315410468989   1.0
O168   O   0.760394070764483   0.432133980060593   0.218070282120983   1.0
O169   O   0.788041486118476   0.369184732990979   0.920662299808483   1.0
O170   O   0.703800060640698   0.453590439599393   0.996037578305650   1.0
O171   O   0.793258046221572   0.499984609673466   0.868585654427455   1.0
O172   O   0.606824261642375   0.371448497126127   0.942560370447291   1.0
O173   O   0.584411373434365   0.464304062352137   0.076465615978300   1.0
O174   O   0.629869324837438   0.421364470578645   0.257023272097146   1.0
O175   O   0.575502933268045   0.540408545438052   0.238999646157027   1.0
O176   O   0.720327389846927   0.369809980004972   0.380323708770278   1.0
O177   O   0.989855834013199   0.645367558027417   0.305669163709543   1.0
O178   O   0.868051041460130   0.667880876355655   0.251676790954288   1.0
O179   O   0.928126592749303   0.750015816662573   0.387057527046002   1.0
O180   O   0.825684866209583   0.639288881272616   0.072224526223407   1.0
O181   O   0.739982668501343   0.639287912100007   0.227705185654651   1.0
O182   O   0.793389364755912   0.750018629237656   0.968510771211802   1.0
O183   O   0.698732613318568   0.671307327091611   0.023782977803009   1.0
O184   O   0.592579339199052   0.750019712559197   0.009241755977913   1.0
O185   O   0.582119179290859   0.632137733638647   0.096164878487344   1.0
O186   O   0.617138624416695   0.660733887323454   0.294321893452049   1.0
O187   O   0.713879614853831   0.750028052974922   0.335164525410345   1.0
O188   O   0.499604103302802   0.571446424723367   0.824084978917135   1.0
O189   O   0.613801973122996   0.571520160223381   0.724180721625425   1.0
O190   O   0.600441439937478   0.635751578800601   0.901862784363307   1.0
O191   O   0.602874571326767   0.503559578294239   0.894419556526141   1.0
O192   O   0.668083157208376   0.539292868351965   0.551567517431028   1.0
O193   O   0.671864074147011   0.457113218266746   0.712952198931385   1.0
O194   O   0.746170383986338   0.567873796446622   0.715168810197743   1.0
O195   O   0.710783872482043   0.632134407529449   0.418409312309865   1.0
O196   O   0.795731596371026   0.546421309782117   0.494563413561851   1.0
O197   O   0.706721846303875   0.500090900039919   0.368583125183032   1.0
O198   O   0.893322893389398   0.628635732577002   0.446228085867204   1.0
O199   O   0.914789666813388   0.535731056035577   0.579788312921849   1.0
O200   O   0.871027396157637   0.578628159368095   0.757490209565101   1.0
O201   O   0.925511044416332   0.459613500667080   0.739028036531991   1.0
O202   O   0.781445470925117   0.632149816669772   0.883320900297556   1.0
O203   O   0.508450563128209   0.357220005964090   0.809681807399741   1.0
O204   O   0.631440854808435   0.332139775328274   0.750143218695775   1.0
O205   O   0.571872272941687   0.249975787369290   0.879665062738044   1.0
O206   O   0.681412647234096   0.360735782001197   0.572265925402056   1.0
O207   O   0.761425531048902   0.360721045674109   0.727844966851290   1.0
O208   O   0.706775341084183   0.250020925662996   0.468510842248847   1.0
O209   O   0.802879564603124   0.332143531067333   0.527766287624326   1.0
O210   O   0.906786562221581   0.250018394788193   0.509265551038129   1.0
O211   O   0.918053300373879   0.367878885617553   0.596128339938575   1.0
O212   O   0.885198093323480   0.335758784850497   0.790723443140904   1.0
O213   O   0.786132498673945   0.250057623158734   0.831545706972968   1.0
O214   O   0.499668937607004   0.928585645316155   0.824104061043144   1.0
O215   O   0.613796326720575   0.928504866010876   0.724180428878164   1.0
O216   O   0.600423464698600   0.864284232585743   0.901851589012407   1.0
O217   O   0.604261908658841   0.996446862851890   0.894582639775476   1.0
O218   O   0.668084420588334   0.960714226312078   0.551569869712454   1.0
O219   O   0.671125706981557   0.042916016656520   0.712975522923336   1.0
O220   O   0.745715096469153   0.932134456896240   0.716565015094355   1.0
O221   O   0.710720624970010   0.867873022294353   0.418390570083272   1.0
O222   O   0.795728797909515   0.953585989081180   0.494562489623668   1.0
O223   O   0.706739686857182   -0.000040796103100   0.368566694721250   1.0
O224   O   0.893314898552215   0.871409425773169   0.446237919032334   1.0
O225   O   0.914795983968097   0.964339467803642   0.579853312010502   1.0
O226   O   0.871133121699054   0.921450188847242   0.757484379784641   1.0
O227   O   0.928174559023342   0.042783066601881   0.742625254195363   1.0
O228   O   0.782847226925895   0.867857594282902   0.883286255590990   1.0
O229   O   0.508156963046430   0.142863264042847   0.811143389031076   1.0
O230   O   0.631926116445639   0.167872850479299   0.751585923179293   1.0
O231   O   0.681410511100805   0.139274621931180   0.572254095159100   1.0
O232   O   0.760043970774744   0.139291734423975   0.727794894114837   1.0
O233   O   0.802876637788313   0.167865207238744   0.527765053833283   1.0
O234   O   0.918047480993977   0.132132530136609   0.596117487906210   1.0
O235   O   0.884478989752365   0.164355263988173   0.790291536972038   1.0
O236   O   0.000562782892958   0.071439269409955   0.324088281194053   1.0
O237   O   0.889980514565244   0.075006100932757   0.227703666102395   1.0
O238   O   0.899597150207305   0.135778878273491   0.401900414134319   1.0
O239   O   0.896544140605912   0.003565640533381   0.395990489806506   1.0
O240   O   0.832090108293477   0.039295367268280   0.051641918986045   1.0
O241   O   0.829020543308651   0.957161069469092   0.212965844203555   1.0
O242   O   0.759991463887587   0.067880153176746   0.216702353046694   1.0
O243   O   0.789300179130702   0.132140108587306   0.918381139177741   1.0
O244   O   0.704273439590210   0.046414283314052   0.994608249060193   1.0
O245   O   0.793276528900835   0.000084086387583   0.868605587178979   1.0
O246   O   0.609994701522623   0.125042024170894   0.938913201229918   1.0
O247   O   0.586089877148057   0.035713411379411   0.086876617552111   1.0
O248   O   0.629926336799195   0.078886572192309   0.257259386679894   1.0
O249   O   0.577406405934051   0.957309361861934   0.243142585605730   1.0
O250   O   0.720242045680794   0.130394698607284   0.380171206608736   1.0
O251   O   0.990016846041694   0.853594819589676   0.305604267580396   1.0
O252   O   0.868041088962556   0.832129558464677   0.251671216121232   1.0
O253   O   0.824291437582530   0.860729070502884   0.072262359847592   1.0
O254   O   0.739974216122613   0.860717662162918   0.227728502164852   1.0
O255   O   0.698699645618564   0.828764247947744   0.023782198002711   1.0
O256   O   0.582050632627258   0.867871994818974   0.096117803501904   1.0
O257   O   0.615569908393541   0.835631679242193   0.290302294617922   1.0
O258   O   -0.000507602968269   0.571432789947742   0.731487380067103   1.0
O259   O   0.113859701841902   0.571491608491524   0.824146545050397   1.0
O260   O   0.100447944352426   0.635757468341390   0.653609249393677   1.0
O261   O   0.099652797895247   0.500001739810357   0.657445973285072   1.0
O262   O   0.168027117512066   0.539296019709007   0.996220187615247   1.0
O263   O   0.171068103541964   0.457035028856292   0.842580789773115   1.0
O264   O   0.246237578416878   0.567870477636409   0.840424811365030   1.0
O265   O   0.210020358362892   0.632128859659576   0.127830202551586   1.0
O266   O   0.297080489661429   0.546423570965332   0.050050624911272   1.0
O267   O   0.207529473533814   0.500112844654247   0.186931797922858   1.0
O268   O   0.392520224446505   0.628608525114233   0.112950097389326   1.0
O269   O   0.418571017459092   0.539285491134414   0.972162105828872   1.0
O270   O   0.371427668090865   0.580673652669812   0.794427874581764   1.0
O271   O   0.425698249533219   0.460733358832357   0.805624940663284   1.0
O272   O   0.281436401164121   0.632160171030134   0.672251938347043   1.0
O273   O   0.008445665450416   0.357113770222219   0.745877490916314   1.0
O274   O   0.132348273531707   0.332140724240339   0.796077755894323   1.0
O275   O   0.181402404475187   0.360729477159305   0.983305833884745   1.0
O276   O   0.260941362890290   0.360719055419527   0.829255171801602   1.0
O277   O   0.302863036327837   0.332141020087373   0.027765060522438   1.0
O278   O   0.417165885606881   0.367875687331830   0.950077917290017   1.0
O279   O   0.382380127564111   0.339262622324384   0.762598053291039   1.0
O280   O   0.503891131479085   0.425003860030340   0.229374518142630   1.0
O281   O   0.386172737896692   0.421453516221805   0.335256661738517   1.0
O282   O   0.400452592705473   0.357135597858955   0.146438931078816   1.0
O283   O   0.399660400626723   0.499983255991277   0.153787688504236   1.0
O284   O   0.328990606399765   0.464284638392629   0.502003197015675   1.0
O285   O   0.329029511496514   0.542975807484555   0.342628911966813   1.0
O286   O   0.259964920361778   0.432124778561166   0.338888473692129   1.0
O287   O   0.289303140970902   0.367858325881272   0.629410818201458   1.0
O288   O   0.204240789121654   0.453588295691004   0.550087288077611   1.0
O289   O   0.292912162337466   0.498893912707513   0.683624381318754   1.0
O290   O   0.106724061525156   0.371439275206356   0.609274561673338   1.0
O291   O   0.085336166817448   0.464286463077573   0.468636875787761   1.0
O292   O   0.131431566707856   0.417851150229585   0.294542532698034   1.0
O293   O   0.074866915776783   0.539319166328977   0.307075722120097   1.0
O294   O   0.218012338955167   0.367842544032169   0.173818831631046   1.0
O295   O   0.492483590326843   0.642881328837885   0.242620417113188   1.0
O296   O   0.367855635555049   0.667875289211174   0.296152067797625   1.0
O297   O   0.325691314198615   0.639292280811774   0.483359383760835   1.0
O298   O   0.242386968361376   0.642835114398594   0.324126734640381   1.0
O299   O   0.199563778170094   0.671417915524555   0.524165138002980   1.0
O300   O   0.082298727754124   0.632143223235527   0.451554295278139   1.0
O301   O   0.114858873935548   0.664193203171369   0.253935338951793   1.0
O302   O   0.504308860160147   0.432164311726201   0.416737167221543   1.0
O303   O   0.498466964361356   0.379781559075589   0.567070245183138   1.0


