data_1
_audit_creation_method   'Generated by vasp2cif'
_cell_length_a    20.09
_cell_length_b    19.738
_cell_length_c    13.142
_cell_angle_alpha    90.0
_cell_angle_beta    90.0
_cell_angle_gamma    90.0

_symmetry_space_group_name_H-M    'P 1'
loop_
_atom_site_label
_atom_site_type_symbol
_atom_site_fract_x
_atom_site_fract_y
_atom_site_fract_z
_atom_site_occupancy
C1   C   0.504006876648038   0.696478644496066   0.496403236972579   1.0
C2   C   0.504270355801801   0.632014031966688   0.561574678084464   1.0
C3   C   0.501071005853804   0.564765424437613   0.501702487504338   1.0
C4   C   0.499230185041599   0.500800558856755   0.568618004497038   1.0
C5   C   0.506921417004857   0.757303465467004   0.568156681419723   1.0
C6   C   0.500071416237710   0.435767611790502   0.510053061815805   1.0
C7   C   0.504273852246946   0.317926557949986   0.506368825926451   1.0
C8   C   0.503861611239326   0.876001805655530   0.583549443428212   1.0
H9   H   0.507100511189986   0.421452577082701   0.309669978792333   1.0
H10   H   0.456695074220157   0.503422373795417   0.622004441873296   1.0
H11   H   0.542521093699567   0.500066777469386   0.620846408794963   1.0
H12   H   0.548863548801571   0.700182852338454   0.447791793863574   1.0
H13   H   0.459275197336026   0.700347337770697   0.448435293005986   1.0
H14   H   0.548498443925173   0.632419906255515   0.610633720071080   1.0
H15   H   0.460685504294602   0.635746889925797   0.612949193985349   1.0
H16   H   0.457763559398568   0.564388552506080   0.449860826701749   1.0
H17   H   0.546941264825334   0.564141326036841   0.456167733529925   1.0
H18   H   0.506614550771625   0.278478890617334   0.564129625491721   1.0
H19   H   0.460000130288865   0.313788575350075   0.457422679562018   1.0
H20   H   0.550066777031393   0.319617344974259   0.461396861014828   1.0
H21   H   0.548900771360251   0.878234477806595   0.631068821443766   1.0
H22   H   0.460281771620705   0.873469660321648   0.633278962139136   1.0
H23   H   0.502140061164465   0.921772590463909   0.537161571632869   1.0
Si24   Si   0.422747030295602   0.069789114918704   0.216131904156127   1.0
Si25   Si   0.327630010121920   0.034998069951253   0.379719797753426   1.0
Si26   Si   0.278204693257127   0.055009410246229   0.592774087658185   1.0
Si27   Si   0.124402327321505   0.053398397183531   0.573283548283530   1.0
Si28   Si   0.070999332065415   0.036984554196659   0.351528842277454   1.0
Si29   Si   0.203911886368318   0.070335160543082   0.250197691684068   1.0
Si30   Si   0.421480097193249   0.827458257005387   0.206014047056523   1.0
Si31   Si   0.316845874352221   0.877128816649023   0.362762841212059   1.0
Si32   Si   0.275088415660681   0.829363997902817   0.567586182958036   1.0
Si33   Si   0.118731690158020   0.828759796243241   0.544813054521714   1.0
Si34   Si   0.066356106077527   0.879454909132920   0.328674856154518   1.0
Si35   Si   0.196276632535184   0.828736408754032   0.233131591901564   1.0
Si36   Si   0.078469427491453   0.931372899173654   0.715345025022128   1.0
Si37   Si   0.176322423891421   0.965405195299919   0.875963470266403   1.0
Si38   Si   0.219197216548714   0.947013960565820   0.092709668295023   1.0
Si39   Si   0.374574171412504   0.946442403246003   0.072208056873534   1.0
Si40   Si   0.429784855976683   0.963665521160454   0.851515013010400   1.0
Si41   Si   0.298631004035742   0.931684352480815   0.747595836620063   1.0
Si42   Si   0.079049877259678   0.172766596984979   0.704968246223659   1.0
Si43   Si   0.183842490715479   0.123121645069654   0.863020920939663   1.0
Si44   Si   0.228103415823918   0.173151157957434   0.068886795609433   1.0
Si45   Si   0.382504248610795   0.172095320928520   0.046065078804458   1.0
Si46   Si   0.431874172252640   0.120081847116327   0.831118745351617   1.0
Si47   Si   0.303494118919607   0.171693213390058   0.733264253226155   1.0
Si48   Si   0.922902225382331   0.429623221069184   0.339412525952518   1.0
Si49   Si   0.828660075436760   0.464672252208285   0.175221494604810   1.0
Si50   Si   0.780364515831205   0.446734079093526   0.959655826050783   1.0
Si51   Si   0.625365676350804   0.447826368064665   0.975499576788086   1.0
Si52   Si   0.574193560581105   0.464384225406644   0.197029795379072   1.0
Si53   Si   0.703791868127194   0.431801377246166   0.304284525540422   1.0
Si54   Si   0.919304289301882   0.672657742499812   0.348778213866727   1.0
Si55   Si   0.815555576055744   0.622202923042567   0.191968986270055   1.0
Si56   Si   0.775594463053163   0.672577290623405   0.988912950713537   1.0
Si57   Si   0.619188687411083   0.672945536875471   0.006769478922013   1.0
Si58   Si   0.567508713993353   0.620861583770026   0.216847950721697   1.0
Si59   Si   0.695249319573558   0.672238798717700   0.316574323327044   1.0
Si60   Si   0.578870396125565   0.571137319666801   0.836551924138283   1.0
Si61   Si   0.677327616091079   0.534749447032345   0.674946348853771   1.0
Si62   Si   0.719535927875721   0.554781639026719   0.458430672305690   1.0
Si63   Si   0.874796770171549   0.552270574762859   0.478816738820825   1.0
Si64   Si   0.929293570431748   0.537327689484698   0.701477188051141   1.0
Si65   Si   0.798599447895332   0.570696256813431   0.808201148077829   1.0
Si66   Si   0.579841744892913   0.328194692213703   0.846053853955608   1.0
Si67   Si   0.686425693578864   0.377823226281162   0.692675624749568   1.0
Si68   Si   0.727753046023109   0.328643075765876   0.484468605843837   1.0
Si69   Si   0.881717962681620   0.327794680628424   0.507094905092744   1.0
Si70   Si   0.933705012083408   0.379854378762171   0.716767757428685   1.0
Si71   Si   0.806483560167655   0.328712234677841   0.818004670322516   1.0
Si72   Si   0.579391151226014   0.929590174595163   0.836799513807578   1.0
Si73   Si   0.677181174360254   0.965790927428921   0.674932647270867   1.0
Si74   Si   0.719400159896133   0.945666189579887   0.458434604675574   1.0
Si75   Si   0.874703487060550   0.948088123506615   0.479013285519098   1.0
Si76   Si   0.929314118373641   0.964981976411089   0.702725023114764   1.0
Si77   Si   0.798795255322745   0.929969153922516   0.808399463816456   1.0
Si78   Si   0.685356985731913   0.122234816271048   0.692449272902753   1.0
Si79   Si   0.727599855212627   0.172033316964449   0.485245709208490   1.0
Si80   Si   0.881634723606892   0.172611793186836   0.507087589628820   1.0
Si81   Si   0.933746505790896   0.122030590946414   0.716704252255323   1.0
Si82   Si   0.805919892017142   0.172144050658741   0.815964149709383   1.0
Si83   Si   0.922174074425938   0.070664785898709   0.339484875664845   1.0
Si84   Si   0.828431944489136   0.035416070443762   0.175314327581821   1.0
Si85   Si   0.780647058498242   0.054742251946944   0.958868372631996   1.0
Si86   Si   0.624919568131304   0.050243184322935   0.981958811955969   1.0
Si87   Si   0.571956220204903   0.035348371047156   0.206513671536711   1.0
Si88   Si   0.703770854841141   0.069308477937872   0.304787757796257   1.0
Si89   Si   0.919098023562261   0.827701374604570   0.348833338897199   1.0
Si90   Si   0.815393411932733   0.878321550182640   0.192323520546018   1.0
Si91   Si   0.775324456331920   0.827764433485332   0.988238795521826   1.0
Si92   Si   0.619148983745803   0.827500644185606   0.006686310495622   1.0
Si93   Si   0.567310591293203   0.878687233999221   0.216477821804409   1.0
Si94   Si   0.694180986525502   0.828164683815380   0.316219764623028   1.0
Si95   Si   0.078600223898934   0.569043305366206   0.715331758919681   1.0
Si96   Si   0.176374225608011   0.534901813041629   0.876038755020487   1.0
Si97   Si   0.220525251762390   0.553275718618336   0.092216299473504   1.0
Si98   Si   0.375760539040391   0.553374233156611   0.073851707734260   1.0
Si99   Si   0.428835361706302   0.537648845109328   0.851432546143756   1.0
Si100   Si   0.298228113803480   0.569573828324276   0.746981150497067   1.0
Si101   Si   0.079128180255521   0.327823700352567   0.704871374456691   1.0
Si102   Si   0.184689125502339   0.377444085143227   0.863099354131248   1.0
Si103   Si   0.228281424674305   0.327816576698574   0.070160124622150   1.0
Si104   Si   0.382003144857397   0.327266975250074   0.041360344827186   1.0
Si105   Si   0.433402519202757   0.381453277695913   0.832951193232714   1.0
Si106   Si   0.304314395079217   0.329280062094571   0.736659883611896   1.0
Si107   Si   0.327623833057376   0.465358918404767   0.380524858173882   1.0
Si108   Si   0.279104603070145   0.445801408412479   0.593669747112100   1.0
Si109   Si   0.125072811383563   0.447340103372185   0.572039297010718   1.0
Si110   Si   0.073377306515666   0.462118646026316   0.348208388239593   1.0
Si111   Si   0.205337950208452   0.429963890253501   0.250041061654526   1.0
Si112   Si   0.421225353492485   0.672461199236157   0.205523432977802   1.0
Si113   Si   0.316723623546340   0.622708001814023   0.362553146962228   1.0
Si114   Si   0.275740536656465   0.674034248957430   0.567442034437365   1.0
Si115   Si   0.119158233937930   0.671941978288931   0.545560546638754   1.0
Si116   Si   0.066184477869160   0.620538123621953   0.330527619987632   1.0
Si117   Si   0.195180941279089   0.671536905267684   0.233769117495975   1.0
Si118   Si   0.580328695888082   0.171281189580572   0.847536221858763   1.0
Al119   Al   0.415588081026978   0.426898456375396   0.214551096148800   1.0
O120   O   0.504276799884324   0.817850693699031   0.516751706542074   1.0
O121   O   0.511429041955391   0.753582513225780   0.661051951908992   1.0
O122   O   0.503297234480638   0.074980450513681   0.229284922938486   1.0
O123   O   0.389598992449957   0.074995002129843   0.329207040575237   1.0
O124   O   0.399655372285118   0.135756036623948   0.153651651372991   1.0
O125   O   0.396610470014979   0.003595140287162   0.151693717775705   1.0
O126   O   0.330154276305904   0.041689833169671   0.500634843337760   1.0
O127   O   0.328339849633574   0.957111589470197   0.342636689693371   1.0
O128   O   0.259970786953019   0.067893499053811   0.338843032031909   1.0
O129   O   0.288573329655050   0.132168638764291   0.627832403020868   1.0
O130   O   0.202888259400671   0.046416325422004   0.550054710762583   1.0
O131   O   0.292866420755629   0.002094119602727   0.683404431757827   1.0
O132   O   0.106682655444376   0.128658953679735   0.609328944910742   1.0
O133   O   0.082600131817984   0.038191002218512   0.472237317435742   1.0
O134   O   0.129930592634174   0.078871626166226   0.298489937538768   1.0
O135   O   0.074806372938028   0.960689162311193   0.307081348986002   1.0
O136   O   0.221030997941082   0.128622382054619   0.168700688929050   1.0
O137   O   0.492420464963075   0.857154389379229   0.242620226134975   1.0
O138   O   0.367851920646840   0.832135535063193   0.296151441002064   1.0
O139   O   0.428381585591467   0.750015800371676   0.168573923951213   1.0
O140   O   0.325699817090825   0.860737177282720   0.483315638851036   1.0
O141   O   0.242448217834285   0.857200981854766   0.324156281377022   1.0
O142   O   0.296962751249034   0.752382143437268   0.583439360233351   1.0
O143   O   0.199481629320205   0.828661140729322   0.524142821085168   1.0
O144   O   0.093272410603544   0.750038974959589   0.546317261222271   1.0
O145   O   0.081454514895395   0.867855038063800   0.450065993343865   1.0
O146   O   0.117139541758530   0.839296163272941   0.250341353694913   1.0
O147   O   0.213894644263820   0.750013730061021   0.220387879261015   1.0
O148   O   -0.000547107759815   0.928636316513647   0.731492933509185   1.0
O149   O   0.113876307374335   0.928540359960800   0.824151507353034   1.0
O150   O   0.100439702457535   0.864285276334611   0.653604400044052   1.0
O151   O   0.100375521013811   -0.000008977430513   0.657469453304327   1.0
O152   O   0.167979023112013   0.960714708968334   0.996233951022547   1.0
O153   O   0.171061799115316   0.043027387744601   0.842587709824235   1.0
O154   O   0.246201420819844   0.932140965779594   0.840404263536957   1.0
O155   O   0.210033663624950   0.867886919468207   0.127760681776239   1.0
O156   O   0.295723211103246   0.953588832502924   0.050069367680104   1.0
O157   O   0.206802983393842   -0.000084776187126   0.186955655557203   1.0
O158   O   0.392501105240220   0.871484684916066   0.112962987637451   1.0
O159   O   0.418572873171632   0.960729424422220   0.972248176899456   1.0
O160   O   0.370978701622765   0.921411125566969   0.798101070553556   1.0
O161   O   0.424313124209391   0.039317733672151   0.805632186990084   1.0
O162   O   0.282164433700829   0.867863503792421   0.673857988141582   1.0
O163   O   0.008498064051160   0.143092709775965   0.745929152326733   1.0
O164   O   0.132240151618321   0.167873723533798   0.796114872287272   1.0
O165   O   0.071830575570980   0.250035132767196   0.664909547763018   1.0
O166   O   0.181401175262249   0.139279130486858   0.983277660513005   1.0
O167   O   0.257651865116228   0.142836585882715   0.824107120736122   1.0
O168   O   0.206755183378645   0.250025683753979   0.087096962136909   1.0
O169   O   0.302907256345540   0.167864449748053   0.027824932209138   1.0
O170   O   0.406828625473964   0.249898823354395   0.042594510445728   1.0
O171   O   0.417708560159201   0.132135588715076   0.951559067905506   1.0
O172   O   0.382399927010279   0.160723111614689   0.751652627941948   1.0
O173   O   0.285453499941924   0.250085456627768   0.720378607863617   1.0
O174   O   0.001396383664844   0.428633368544649   0.323700891519996   1.0
O175   O   0.889987503255315   0.425002883049465   0.227731498476605   1.0
O176   O   0.899634455556548   0.364268472820124   0.401890851849057   1.0
O177   O   0.896548615767949   0.496443264892263   0.395989901527926   1.0
O178   O   0.832145441031137   0.460714593322817   0.051672603872883   1.0
O179   O   0.828982636221632   0.542904740387562   0.209319055920487   1.0
O180   O   0.760395821222711   0.432136251281130   0.218052309815907   1.0
O181   O   0.788028047582706   0.369201612557453   0.920680208845821   1.0
O182   O   0.703800957614614   0.453591334697274   0.996040458094464   1.0
O183   O   0.793261329773468   0.499988104907396   0.868587390994721   1.0
O184   O   0.606832379595871   0.371453194613508   0.942565995141125   1.0
O185   O   0.584411797792713   0.464308054082814   0.076473017137749   1.0
O186   O   0.629855987233365   0.421381010712159   0.257016708843809   1.0
O187   O   0.575503631468718   0.540413812198098   0.239003962172615   1.0
O188   O   0.721061502471833   0.371327432932893   0.379765224966913   1.0
O189   O   0.989857197299684   0.645372236196476   0.305673775840238   1.0
O190   O   0.868053250601946   0.667882185463034   0.251678903991684   1.0
O191   O   0.928128451375203   0.750020454785586   0.387060215613941   1.0
O192   O   0.825685370857637   0.639289893535336   0.072228770998265   1.0
O193   O   0.739983779343601   0.639288363059220   0.227707534281789   1.0
O194   O   0.793393341381008   0.750023899817044   0.968512703573118   1.0
O195   O   0.698734506619145   0.671314189630812   0.023789060613491   1.0
O196   O   0.592585745432103   0.750022724405097   0.009248846597325   1.0
O197   O   0.582129107221894   0.632139784155925   0.096163292287148   1.0
O198   O   0.617140496631977   0.660734752816432   0.294326180744987   1.0
O199   O   0.713879406837950   0.750032133525664   0.335168631514437   1.0
O200   O   0.499611766416373   0.571445075987857   0.824089726509220   1.0
O201   O   0.613825441032052   0.571511326530703   0.724197783585860   1.0
O202   O   0.600450617760194   0.635756663776224   0.901869538353415   1.0
O203   O   0.602874253842635   0.503562605836396   0.894416576616241   1.0
O204   O   0.668076581629924   0.539295270437556   0.551576416124952   1.0
O205   O   0.671867070233272   0.457115574356976   0.712954698334305   1.0
O206   O   0.746175432360876   0.567874758142308   0.715168117552487   1.0
O207   O   0.710771313086502   0.632136250741404   0.418419340401522   1.0
O208   O   0.795732384141487   0.546422335737345   0.494566885863348   1.0
O209   O   0.706712736102900   0.500132081050544   0.368592324917495   1.0
O210   O   0.893325674637293   0.628639533183694   0.446230362081880   1.0
O211   O   0.914792916753403   0.535734215707844   0.579793082982735   1.0
O212   O   0.871028432023595   0.578631372501063   0.757493733167898   1.0
O213   O   0.925511125538393   0.459625228847398   0.739038350654247   1.0
O214   O   0.781446061622760   0.632151560336452   0.883329339507039   1.0
O215   O   0.508453417550241   0.357223507199826   0.809686253448296   1.0
O216   O   0.631441916742679   0.332140933393447   0.750147301933473   1.0
O217   O   0.571874226278557   0.249983002055563   0.879667083311289   1.0
O218   O   0.681414491704708   0.360736184335149   0.572255028233989   1.0
O219   O   0.761426426307046   0.360721904774694   0.727849511706770   1.0
O220   O   0.706782286787410   0.250048425964610   0.468507903323039   1.0
O221   O   0.802877173585041   0.332144387672380   0.527761994231137   1.0
O222   O   0.906790147791292   0.250023088770294   0.509267897976750   1.0
O223   O   0.918055120305949   0.367880092818256   0.596131806039364   1.0
O224   O   0.885202072002231   0.335762021234306   0.790727182052799   1.0
O225   O   0.786138485772398   0.250062760114158   0.831549145621484   1.0
O226   O   0.499680048409608   0.928593477317470   0.824106094520871   1.0
O227   O   0.613845307892209   0.928532493368740   0.724213063012965   1.0
O228   O   0.600433600442201   0.864284121728679   0.901857240177625   1.0
O229   O   0.604262513190851   0.996449272152844   0.894588542118889   1.0
O230   O   0.668077661252684   0.960714574861906   0.551581298047890   1.0
O231   O   0.671125183458104   0.042925563178539   0.712978954704117   1.0
O232   O   0.745717662292162   0.932134656305966   0.716573350413979   1.0
O233   O   0.710727283570281   0.867874857918521   0.418398072198645   1.0
O234   O   0.795730076745387   0.953587167088112   0.494568789508338   1.0
O235   O   0.706741289633756   -0.000036748162712   0.368569688329914   1.0
O236   O   0.893314819578789   0.871414074022013   0.446242546729301   1.0
O237   O   0.914808406987088   0.964354282150951   0.579859930089906   1.0
O238   O   0.871139801827527   0.921452810878920   0.757487199579840   1.0
O239   O   0.928178882564979   0.042788187702574   0.742627574673688   1.0
O240   O   0.782847813481021   0.867858423246171   0.883291265841166   1.0
O241   O   0.508159728942770   0.142865473125274   0.811157832972238   1.0
O242   O   0.631926987987327   0.167873821704036   0.751590228047824   1.0
O243   O   0.681411191767972   0.139275472789469   0.572257597053768   1.0
O244   O   0.760045953790917   0.139293087747566   0.727804126492074   1.0
O245   O   0.802877968323293   0.167865906165950   0.527770134318494   1.0
O246   O   0.918048227536672   0.132133174501791   0.596119581674097   1.0
O247   O   0.884482071785688   0.164360775619361   0.790297373536148   1.0
O248   O   0.000559157509683   0.071442158145230   0.324095593527959   1.0
O249   O   0.889982089748982   0.075007553150170   0.227711203083810   1.0
O250   O   0.899597575458664   0.135783492134937   0.401905313778764   1.0
O251   O   0.896546058236404   0.003566136458952   0.395991312867020   1.0
O252   O   0.832135482246827   0.039295199808044   0.051651280240558   1.0
O253   O   0.829023404647650   0.957165766170510   0.212967902749121   1.0
O254   O   0.759991943570205   0.067881122310657   0.216706109914006   1.0
O255   O   0.789302272268887   0.132141275195053   0.918382937387153   1.0
O256   O   0.704274334037354   0.046415175408949   0.994611371085608   1.0
O257   O   0.793278745806524   0.000092525542027   0.868610992489011   1.0
O258   O   0.609995142167850   0.125043029756224   0.938916852420895   1.0
O259   O   0.586092518487393   0.035716193751397   0.086881674835651   1.0
O260   O   0.629932021633790   0.078900332223149   0.257273844662268   1.0
O261   O   0.577406735896543   0.957314407935042   0.243147772415799   1.0
O262   O   0.720243176236963   0.130401097432967   0.380178671173613   1.0
O263   O   0.990017839414025   0.853595904747063   0.305608105093622   1.0
O264   O   0.868042904673680   0.832130368095687   0.251673283511585   1.0
O265   O   0.824292297737205   0.860730407478051   0.072269205628228   1.0
O266   O   0.739975035319172   0.860718674321440   0.227734139148952   1.0
O267   O   0.698700140041925   0.828774251894947   0.023790406932861   1.0
O268   O   0.582053666545878   0.867873346864924   0.096124200344740   1.0
O269   O   0.615574906538714   0.835630441298041   0.290305806387014   1.0
O270   O   -0.000498189187881   0.571438202024497   0.731487059880143   1.0
O271   O   0.113864677140328   0.571494009011923   0.824151341729715   1.0
O272   O   0.100451214273161   0.635760872403676   0.653612528063349   1.0
O273   O   0.099654270854058   0.500005786134030   0.657450438937598   1.0
O274   O   0.168027573905055   0.539297201969571   0.996223773694367   1.0
O275   O   0.171074192201200   0.457041720058907   0.842583473560674   1.0
O276   O   0.246235855808758   0.567872638841469   0.840426531414038   1.0
O277   O   0.210020826926828   0.632130537394090   0.127837863141742   1.0
O278   O   0.297081474863439   0.546424422016810   0.050056927779024   1.0
O279   O   0.207539984984653   0.500120856882228   0.186937302068585   1.0
O280   O   0.392523654520086   0.628611659748722   0.112955424129429   1.0
O281   O   0.418571327595594   0.539286427339407   0.972166693363773   1.0
O282   O   0.371430385999983   0.580676659987542   0.794434063165008   1.0
O283   O   0.425698288828749   0.460736215413791   0.805630555545209   1.0
O284   O   0.281437041158425   0.632160641434477   0.672257779193087   1.0
O285   O   0.008448580504653   0.357156693747688   0.745880189987221   1.0
O286   O   0.132350408026240   0.332142028217767   0.796078994931718   1.0
O287   O   0.181402882834302   0.360730395888202   0.983309674779840   1.0
O288   O   0.260940389646433   0.360719998837092   0.829260698981083   1.0
O289   O   0.302864027123569   0.332142108694294   0.027770826089538   1.0
O290   O   0.417166864717549   0.367876943924510   0.950081076062846   1.0
O291   O   0.382384198127420   0.339263559741717   0.762599466899803   1.0
O292   O   0.503893303670460   0.425004442553260   0.229374462424897   1.0
O293   O   0.386174191764882   0.421455481768494   0.335258523827887   1.0
O294   O   0.400454262752115   0.357141738651620   0.146446622249046   1.0
O295   O   0.399662276352982   0.499986701801501   0.153790024071924   1.0
O296   O   0.328991995637579   0.464287687762975   0.502005895796951   1.0
O297   O   0.329032717883644   0.542980803407494   0.342631900965136   1.0
O298   O   0.259966854932041   0.432126169161194   0.338894091118157   1.0
O299   O   0.289316953840412   0.367860216523290   0.629405993536423   1.0
O300   O   0.204241893809131   0.453589370495917   0.550092676303946   1.0
O301   O   0.292961816067144   0.498919070963956   0.683646576138831   1.0
O302   O   0.106727256655286   0.371442792108848   0.609276509451290   1.0
O303   O   0.085341832630642   0.464288798152350   0.468642669619164   1.0
O304   O   0.131432158207519   0.417852301695062   0.294547041323217   1.0
O305   O   0.074886155802469   0.539321290858712   0.307085878580532   1.0
O306   O   0.218014913041835   0.367843744709806   0.173826964544988   1.0
O307   O   0.492489939625774   0.642882548196951   0.242623723619843   1.0
O308   O   0.367862863434221   0.667876310312471   0.296157266096411   1.0
O309   O   0.325692917304230   0.639294183586530   0.483365495916594   1.0
O310   O   0.242388529051284   0.642838736607614   0.324129414576454   1.0
O311   O   0.199568917347908   0.671420635388315   0.524168568518811   1.0
O312   O   0.082301266999986   0.632144447682784   0.451557580320517   1.0
O313   O   0.114859647659303   0.664201241885940   0.253937131425184   1.0
O314   O   0.504309035440414   0.432164719279956   0.416738975174074   1.0
O315   O   0.498468341422252   0.379782847173527   0.567081656358608   1.0


