data_1
_audit_creation_method   'Generated by vasp2cif'
_cell_length_a    20.09
_cell_length_b    19.738
_cell_length_c    13.142
_cell_angle_alpha    90.0
_cell_angle_beta    90.0
_cell_angle_gamma    90.0

_symmetry_space_group_name_H-M    'P 1'
loop_
_atom_site_label
_atom_site_type_symbol
_atom_site_fract_x
_atom_site_fract_y
_atom_site_fract_z
_atom_site_occupancy
C1   C   0.503184301240496   0.632087489772372   0.563092673785534   1.0
C2   C   0.501028273349822   0.564852779344304   0.501819403404902   1.0
C3   C   0.499274001428897   0.500748865768610   0.568566049305205   1.0
C4   C   0.500080470384801   0.435750666185802   0.510047935240303   1.0
C5   C   0.504281932879264   0.317901478371232   0.506316741802957   1.0
H6   H   0.502831939943266   0.677642084172663   0.514944386478088   1.0
H7   H   0.507099105508037   0.421436691871769   0.309659136645772   1.0
H8   H   0.456879583597759   0.503192994374253   0.621868171954923   1.0
H9   H   0.542536607723815   0.499985915775612   0.620831335384533   1.0
H10   H   0.548937783101453   0.635371509087019   0.609189008486097   1.0
H11   H   0.460140509765349   0.636632741954435   0.616991706184271   1.0
H12   H   0.457777664754348   0.564346903389955   0.449871882254772   1.0
H13   H   0.546933221738510   0.564192608434002   0.456220234838339   1.0
H14   H   0.506624504489790   0.278416054700879   0.564063600142430   1.0
H15   H   0.459998233449273   0.313756322250793   0.457394999132290   1.0
H16   H   0.550063423590661   0.319574129644185   0.461343914805130   1.0
Si17   Si   0.422741108344283   0.069739659815991   0.216072966434568   1.0
Si18   Si   0.327644980813040   0.034944081098000   0.379625766856586   1.0
Si19   Si   0.278228322119176   0.054931682410416   0.592654085962641   1.0
Si20   Si   0.124402284040397   0.053332507730273   0.573189731472790   1.0
Si21   Si   0.070990645131528   0.036917054836561   0.351446879655663   1.0
Si22   Si   0.203914982249835   0.070276001358406   0.250127349905113   1.0
Si23   Si   0.421401223147194   0.827369065517827   0.205870083800098   1.0
Si24   Si   0.316764291892986   0.877089399181002   0.362697419074643   1.0
Si25   Si   0.275090557042995   0.829281645648050   0.567517879152610   1.0
Si26   Si   0.118729248659278   0.828673569039072   0.544710987154795   1.0
Si27   Si   0.066349814995315   0.879391596034236   0.328601501559976   1.0
Si28   Si   0.196265628137243   0.828648907821723   0.233025792009378   1.0
Si29   Si   0.078467051432888   0.931312388380568   0.715259095066163   1.0
Si30   Si   0.176318744150797   0.965332026603346   0.875865267541122   1.0
Si31   Si   0.219177733228241   0.946966542884517   0.092618729498981   1.0
Si32   Si   0.374567396346208   0.946433907841922   0.072094004055208   1.0
Si33   Si   0.429772814404441   0.963623181253404   0.851334034744468   1.0
Si34   Si   0.298639208826842   0.931629740075464   0.747471664394502   1.0
Si35   Si   0.079048822202127   0.172678912328463   0.704899848363579   1.0
Si36   Si   0.183838452470785   0.123037442534739   0.862934456801782   1.0
Si37   Si   0.228092808341216   0.173091826002512   0.068812097130155   1.0
Si38   Si   0.382506548034812   0.172030123921799   0.045982761421714   1.0
Si39   Si   0.431874556687643   0.120006495811878   0.831028426791391   1.0
Si40   Si   0.303490144859623   0.171596679557799   0.733167265448725   1.0
Si41   Si   0.922904568941792   0.429563202558756   0.339345574782655   1.0
Si42   Si   0.828648149972154   0.464609032736190   0.175154929739321   1.0
Si43   Si   0.780383706382400   0.446621514709043   0.959543805109983   1.0
Si44   Si   0.625382120147421   0.447711440008867   0.975485825723101   1.0
Si45   Si   0.574226438956725   0.464320330982045   0.197007530221606   1.0
Si46   Si   0.703896114109599   0.431076950386837   0.305004577105808   1.0
Si47   Si   0.919289977863339   0.672588558025985   0.348710681085701   1.0
Si48   Si   0.815536737449216   0.622140431064979   0.191933830117136   1.0
Si49   Si   0.775621935126229   0.672507190771720   0.988840132534980   1.0
Si50   Si   0.619223992187565   0.672835520595897   0.006877115508747   1.0
Si51   Si   0.567511697259269   0.620819990282162   0.216970076118473   1.0
Si52   Si   0.695157517938629   0.672189259996297   0.316566078441481   1.0
Si53   Si   0.578935360313321   0.570868340327177   0.836516115046864   1.0
Si54   Si   0.677374584646036   0.534636831148142   0.674771123358428   1.0
Si55   Si   0.719540081445277   0.554758485249574   0.458305114912587   1.0
Si56   Si   0.874793414264357   0.552218124899262   0.478735647386889   1.0
Si57   Si   0.929310835589432   0.537252063621527   0.701394873726803   1.0
Si58   Si   0.798633409545943   0.570614611681997   0.808116613734147   1.0
Si59   Si   0.579838272314205   0.328074287903358   0.845964268842512   1.0
Si60   Si   0.686420227564834   0.377735104515647   0.692612910009508   1.0
Si61   Si   0.727769947045772   0.328112176584234   0.485150020030877   1.0
Si62   Si   0.881726242962524   0.327716862045557   0.507048767254726   1.0
Si63   Si   0.933711970642901   0.379772841823661   0.716694184473404   1.0
Si64   Si   0.806505474206816   0.328590595588156   0.817884930785161   1.0
Si65   Si   0.579411577305453   0.929659491112424   0.836326902510178   1.0
Si66   Si   0.676978952905542   0.965616735079513   0.674747359133875   1.0
Si67   Si   0.719377990158701   0.945627869179004   0.458403242665097   1.0
Si68   Si   0.874687531852410   0.948025153205315   0.478924356852271   1.0
Si69   Si   0.929310246054937   0.964917074448707   0.702623721979758   1.0
Si70   Si   0.798763078170216   0.929925159717686   0.808245397261970   1.0
Si71   Si   0.685326902511205   0.122105132284249   0.692357784157574   1.0
Si72   Si   0.727574876515870   0.171917072822272   0.485162246072831   1.0
Si73   Si   0.881623832346333   0.172528692368766   0.507003566844042   1.0
Si74   Si   0.933738710830695   0.121961825296975   0.716640217491820   1.0
Si75   Si   0.805905155188230   0.172055961168187   0.815881633561245   1.0
Si76   Si   0.922164224097566   0.070600393332557   0.339407428679807   1.0
Si77   Si   0.828416674680710   0.035352760188078   0.175220548598518   1.0
Si78   Si   0.780630349824631   0.054676348584936   0.958750670378635   1.0
Si79   Si   0.624913984997256   0.050186382896948   0.981865801730865   1.0
Si80   Si   0.571927961655286   0.035310154903625   0.206446298256109   1.0
Si81   Si   0.703753714095010   0.069225410188364   0.304700150110193   1.0
Si82   Si   0.919095545556191   0.827626946029128   0.348762924497030   1.0
Si83   Si   0.815396149864682   0.878266839199146   0.192249652144976   1.0
Si84   Si   0.775353083396990   0.827721822867190   0.988137926064545   1.0
Si85   Si   0.619198057411979   0.827498138894089   0.006656683472792   1.0
Si86   Si   0.567352903297222   0.878686531083744   0.216342331021660   1.0
Si87   Si   0.694246046979640   0.828080291261657   0.316188839283716   1.0
Si88   Si   0.078599777798970   0.568984019481434   0.715255181945808   1.0
Si89   Si   0.176362122938952   0.534833468198111   0.875963115250733   1.0
Si90   Si   0.220511150147976   0.553207132629394   0.092134451924406   1.0
Si91   Si   0.375741390718137   0.553309353970790   0.073837785385066   1.0
Si92   Si   0.428758588534604   0.537484751888980   0.851411286301530   1.0
Si93   Si   0.298158193505030   0.569472007181146   0.746818169353689   1.0
Si94   Si   0.079126790471745   0.327735141212852   0.704806179594841   1.0
Si95   Si   0.184695272416885   0.377357571580892   0.863032633903937   1.0
Si96   Si   0.228298570577475   0.327741351469054   0.070068067374639   1.0
Si97   Si   0.381985697559450   0.327187516036123   0.041343068264633   1.0
Si98   Si   0.433390487260159   0.381350303317078   0.832893707071268   1.0
Si99   Si   0.304298803829275   0.329185810383237   0.736592938767024   1.0
Si100   Si   0.327596574005119   0.465329483526793   0.380439029686658   1.0
Si101   Si   0.279095475615955   0.445720025849120   0.593546948985494   1.0
Si102   Si   0.125065302929694   0.447275233210853   0.571957904938909   1.0
Si103   Si   0.073379991505729   0.462050138791519   0.348128666513059   1.0
Si104   Si   0.205346126269713   0.429892254543497   0.249951172017548   1.0
Si105   Si   0.421202287759978   0.672362590055617   0.205616617386572   1.0
Si106   Si   0.316806258841468   0.622688317763537   0.362538394662270   1.0
Si107   Si   0.275777864497870   0.673951474658577   0.567217028207344   1.0
Si108   Si   0.119161537646378   0.671863993085536   0.545471075087628   1.0
Si109   Si   0.066178894294739   0.620474504575151   0.330445152496215   1.0
Si110   Si   0.195197766458320   0.671442626419616   0.233718350636468   1.0
Si111   Si   0.580330407232257   0.171181666893327   0.847424253056632   1.0
Al112   Al   0.415562111372474   0.426803593562983   0.214412087533926   1.0
O113   O   0.503292454566788   0.074978573291027   0.229274810382530   1.0
O114   O   0.389602916008183   0.074992458430448   0.329195735600993   1.0
O115   O   0.399655831476651   0.135751186643982   0.153646836229099   1.0
O116   O   0.396611006983847   0.003591424501532   0.151688094075226   1.0
O117   O   0.330154563242440   0.041665685549744   0.500587719714151   1.0
O118   O   0.328327978584874   0.957102273183508   0.342629203215345   1.0
O119   O   0.259970665831812   0.067891597720363   0.338835882723269   1.0
O120   O   0.288572358942539   0.132164964286096   0.627818529774301   1.0
O121   O   0.202887962105371   0.046414618959893   0.550046985078489   1.0
O122   O   0.292865127376207   0.002088084480611   0.683397714103651   1.0
O123   O   0.106689026774439   0.128647742095075   0.609319281517929   1.0
O124   O   0.082598785836009   0.038177866223558   0.472221302907592   1.0
O125   O   0.129932465909190   0.078842845006049   0.298489247523457   1.0
O126   O   0.074803115017859   0.960685661176922   0.307071623076935   1.0
O127   O   0.221029230125330   0.128616534648811   0.168695017913009   1.0
O128   O   0.492417371229242   0.857146680738213   0.242618284733992   1.0
O129   O   0.367855683126188   0.832134063956508   0.296147273189630   1.0
O130   O   0.428379240733199   0.750007880805058   0.168566847998030   1.0
O131   O   0.325699180711798   0.860735414045496   0.483302734249066   1.0
O132   O   0.242436258694292   0.857193409676796   0.324146285648543   1.0
O133   O   0.296957128625920   0.752368990018117   0.583434286682871   1.0
O134   O   0.199480036106696   0.828654732397015   0.524137037129907   1.0
O135   O   0.093271804122748   0.750029037011919   0.546312569746844   1.0
O136   O   0.081454042201930   0.867853339995925   0.450055835010443   1.0
O137   O   0.117138498271768   0.839294376066101   0.250330634520755   1.0
O138   O   0.213894549668432   0.750003516988894   0.220382707407909   1.0
O139   O   -0.000546362008213   0.928628124371803   0.731488905381725   1.0
O140   O   0.113867478618492   0.928533518748624   0.824144122611698   1.0
O141   O   0.100440054687883   0.864275814017261   0.653595966490330   1.0
O142   O   0.100374980012724   -0.000014576530103   0.657465787553027   1.0
O143   O   0.167980489389062   0.960713111541093   0.996227312339869   1.0
O144   O   0.171066893381046   0.043013155329391   0.842582707956712   1.0
O145   O   0.246201696008912   0.932139106325813   0.840397667396359   1.0
O146   O   0.210033761410649   0.867884896127132   0.127752997476479   1.0
O147   O   0.295722742398437   0.953586881386901   0.050062496853400   1.0
O148   O   0.206799080600035   -0.000094316673993   0.186946253846559   1.0
O149   O   0.392498747929170   0.871480671332018   0.112956041254703   1.0
O150   O   0.418573369194672   0.960727471262444   0.972233828881355   1.0
O151   O   0.370970722287558   0.921402658174408   0.798099555113894   1.0
O152   O   0.424312620039689   0.039315739205002   0.805626493464528   1.0
O153   O   0.282159011250833   0.867860559667033   0.673849876748698   1.0
O154   O   0.008495690804305   0.143076753956959   0.745916847525604   1.0
O155   O   0.132239855414368   0.167872026512316   0.796109473289908   1.0
O156   O   0.071827531263209   0.250024822086261   0.664903142578652   1.0
O157   O   0.181400747002144   0.139276593008080   0.983265338024569   1.0
O158   O   0.257652180071541   0.142830737019522   0.824102382262417   1.0
O159   O   0.206755373608720   0.250017837138347   0.087091958342394   1.0
O160   O   0.302906906172401   0.167862733377610   0.027816513241525   1.0
O161   O   0.406814655939868   0.249885610164143   0.042590481321263   1.0
O162   O   0.417711716815226   0.132132685447993   0.951548743240994   1.0
O163   O   0.382400731243090   0.160721639872284   0.751648901855152   1.0
O164   O   0.285455787096048   0.250076573990013   0.720373317685504   1.0
O165   O   0.001395448932648   0.428613229879214   0.323691266258491   1.0
O166   O   0.889987274653460   0.425000936746189   0.227723340589516   1.0
O167   O   0.899629701545126   0.364262892634780   0.401886920962260   1.0
O168   O   0.896553061890671   0.496440128112156   0.395982677262067   1.0
O169   O   0.832140661663893   0.460712883288979   0.051665287880588   1.0
O170   O   0.828981409823131   0.542894816172304   0.209312915122024   1.0
O171   O   0.760393980208437   0.432133267398623   0.218067585467710   1.0
O172   O   0.788082763473821   0.369148131618949   0.920626387278505   1.0
O173   O   0.703808988341804   0.453588424400667   0.996028662021827   1.0
O174   O   0.793260648077777   0.499981257418495   0.868584201434429   1.0
O175   O   0.606825708514731   0.371444499089760   0.942556830659017   1.0
O176   O   0.584418875699616   0.464297986198907   0.076453859672100   1.0
O177   O   0.629872183495990   0.421354861762499   0.257020827040590   1.0
O178   O   0.575505271667220   0.540401780941042   0.238997341691989   1.0
O179   O   0.720317224617052   0.369787233201363   0.380305704632201   1.0
O180   O   0.989856659480454   0.645362709070696   0.305665090747901   1.0
O181   O   0.868052111541912   0.667879916929177   0.251673691895233   1.0
O182   O   0.928129073857161   0.750010860201877   0.387055093429824   1.0
O183   O   0.825685101818057   0.639288127424403   0.072220960561152   1.0
O184   O   0.739983477738399   0.639286936829124   0.227700390610669   1.0
O185   O   0.793392067731913   0.750013408436950   0.968508395523563   1.0
O186   O   0.698734749557217   0.671300581052558   0.023780954530891   1.0
O187   O   0.592583064848010   0.750015532804188   0.009239620997163   1.0
O188   O   0.582128286663383   0.632137704509030   0.096159931760210   1.0
O189   O   0.617138866442775   0.660733028734747   0.294319696132598   1.0
O190   O   0.713882078109277   0.750023121628898   0.335162908360467   1.0
O191   O   0.499609889862775   0.571443005425282   0.824085457983764   1.0
O192   O   0.613829926235111   0.571503745446908   0.724192452633030   1.0
O193   O   0.600442520454517   0.635747296480737   0.901857922177450   1.0
O194   O   0.602875142000981   0.503557657054773   0.894419293510169   1.0
O195   O   0.668096823509389   0.539292315380754   0.551535371548983   1.0
O196   O   0.671867950854742   0.457104980468273   0.712950390061984   1.0
O197   O   0.746173923909324   0.567873137381261   0.715163671914599   1.0
O198   O   0.710785051893479   0.632133396288053   0.418408447461482   1.0
O199   O   0.795732022817268   0.546420535714563   0.494560929473479   1.0
O200   O   0.706721844019568   0.500085391829028   0.368578854638968   1.0
O201   O   0.893324326752653   0.628632061207679   0.446226196850069   1.0
O202   O   0.914791353952425   0.535727649343157   0.579785429026162   1.0
O203   O   0.871033753319144   0.578623834323786   0.757487989629269   1.0
O204   O   0.925510955796714   0.459606076480618   0.739023068475781   1.0
O205   O   0.781446432473616   0.632148279168082   0.883314130053234   1.0
O206   O   0.508454051203777   0.357211595338099   0.809679969458051   1.0
O207   O   0.631441214028678   0.332138989994670   0.750139426312657   1.0
O208   O   0.571875326047336   0.249970776744064   0.879662286000931   1.0
O209   O   0.681413213254400   0.360734796553546   0.572260354404306   1.0
O210   O   0.761426228560370   0.360720287062614   0.727842524908711   1.0
O211   O   0.706777839984573   0.250016757320911   0.468509100779145   1.0
O212   O   0.802880192724142   0.332142818322822   0.527763057545587   1.0
O213   O   0.906789667510777   0.250014617654578   0.509263058677817   1.0
O214   O   0.918054868749609   0.367877865269254   0.596124666322324   1.0
O215   O   0.885201609015405   0.335755251329090   0.790721902479642   1.0
O216   O   0.786134066194707   0.250052562933049   0.831542937704765   1.0
O217   O   0.499676208933405   0.928582963777337   0.824102487926202   1.0
O218   O   0.613798272539738   0.928501915274714   0.724177893562441   1.0
O219   O   0.600426658518790   0.864280904798337   0.901849556985487   1.0
O220   O   0.604262264656625   0.996445535824663   0.894577074290446   1.0
O221   O   0.668101993001263   0.960713699509952   0.551533970510471   1.0
O222   O   0.671130322463179   0.042910775718965   0.712972687280767   1.0
O223   O   0.745715691828578   0.932133485105785   0.716561835621337   1.0
O224   O   0.710721226730258   0.867871601316447   0.418387229436568   1.0
O225   O   0.795729576445167   0.953585294814077   0.494559997876699   1.0
O226   O   0.706740833678940   -0.000043214508233   0.368565342343013   1.0
O227   O   0.893319582474357   0.871404131738569   0.446233571706116   1.0
O228   O   0.914797164868072   0.964335433664710   0.579849259425534   1.0
O229   O   0.871135016498718   0.921446649407907   0.757478306108951   1.0
O230   O   0.928175638117136   0.042777718956638   0.742622791665643   1.0
O231   O   0.782847790126055   0.867856787963998   0.883283511700921   1.0
O232   O   0.508157235606755   0.142860880793663   0.811128163927313   1.0
O233   O   0.631928208484524   0.167871714398222   0.751583827574642   1.0
O234   O   0.681410995163711   0.139273815274792   0.572250360406968   1.0
O235   O   0.760044047521441   0.139290894313138   0.727790626941862   1.0
O236   O   0.802877291674196   0.167864465247389   0.527762130603183   1.0
O237   O   0.918049499629126   0.132131754875426   0.596114326214116   1.0
O238   O   0.884483454546431   0.164345771606578   0.790286491480918   1.0
O239   O   0.000560722543278   0.071436609326352   0.324089245719215   1.0
O240   O   0.889980388501950   0.075005260199475   0.227699145296556   1.0
O241   O   0.899600677861846   0.135774099188326   0.401896986181754   1.0
O242   O   0.896545800310404   0.003564771970193   0.395988326965753   1.0
O243   O   0.832091569983869   0.039294707309479   0.051639789088859   1.0
O244   O   0.829022372060927   0.957155890974190   0.212963527727093   1.0
O245   O   0.759992511351734   0.067879101160945   0.216698061859642   1.0
O246   O   0.789301558749768   0.132139244134506   0.918379472117254   1.0
O247   O   0.704274371224834   0.046413393039284   0.994604908831533   1.0
O248   O   0.793279754228192   0.000078652474440   0.868601154861210   1.0
O249   O   0.609994975122157   0.125040819445974   0.938911142266733   1.0
O250   O   0.586092011588142   0.035710703003356   0.086874094112597   1.0
O251   O   0.629926988859652   0.078865157604786   0.257239793456001   1.0
O252   O   0.577412863957919   0.957300232402064   0.243141963093564   1.0
O253   O   0.720247040592990   0.130386144442612   0.380166292530331   1.0
O254   O   0.990017393892791   0.853593957176996   0.305601238645000   1.0
O255   O   0.868043519913390   0.832128790265978   0.251668838552570   1.0
O256   O   0.824291593578020   0.860728073285502   0.072256918046437   1.0
O257   O   0.739974611717776   0.860717003836907   0.227725318358499   1.0
O258   O   0.698702713397662   0.828755225300116   0.023776285352250   1.0
O259   O   0.582052790679675   0.867870926310963   0.096114738785800   1.0
O260   O   0.615572869920140   0.835622883557653   0.290301290632269   1.0
O261   O   -0.000499906330241   0.571428800719271   0.731483485881066   1.0
O262   O   0.113862267446563   0.571487926337526   0.824144841866881   1.0
O263   O   0.100448809184384   0.635754852990157   0.653607581931773   1.0
O264   O   0.099657856152149   0.499997005571831   0.657442724349282   1.0
O265   O   0.168029107703617   0.539295266868206   0.996216390174712   1.0
O266   O   0.171069086241223   0.457029261906867   0.842578170880802   1.0
O267   O   0.246239544058532   0.567869629812401   0.840422778995136   1.0
O268   O   0.210020893216507   0.632127432341273   0.127824578243636   1.0
O269   O   0.297081342296694   0.546422755178253   0.050047049975140   1.0
O270   O   0.207531222195853   0.500112113416649   0.186932591708228   1.0
O271   O   0.392521464630854   0.628604657844170   0.112947203716583   1.0
O272   O   0.418571599562807   0.539284810208305   0.972156555621707   1.0
O273   O   0.371429375060215   0.580670317100814   0.794425243080384   1.0
O274   O   0.425699035395603   0.460731890917229   0.805620968745389   1.0
O275   O   0.281437356824128   0.632159200132647   0.672249532862943   1.0
O276   O   0.008445928529618   0.357093093111942   0.745876103897938   1.0
O277   O   0.132350335541703   0.332141286163896   0.796071505763146   1.0
O278   O   0.181402788723514   0.360728759589793   0.983302539663978   1.0
O279   O   0.260950283765645   0.360718232213064   0.829247056637219   1.0
O280   O   0.302863883230928   0.332140316165659   0.027762245968729   1.0
O281   O   0.417166347408922   0.367874937196929   0.950073074430168   1.0
O282   O   0.382383990195780   0.339261669438950   0.762593921335195   1.0
O283   O   0.503894659241473   0.425003092840427   0.229370816140815   1.0
O284   O   0.386178721792605   0.421449244152892   0.335251628532886   1.0
O285   O   0.400454816992794   0.357131519005702   0.146437051931224   1.0
O286   O   0.399664030453343   0.499980453954300   0.153786200532439   1.0
O287   O   0.328993188608025   0.464281939609193   0.501999783016262   1.0
O288   O   0.329028753138291   0.542970165880682   0.342626055240997   1.0
O289   O   0.259965291381872   0.432123855359216   0.338885833622736   1.0
O290   O   0.289305670124602   0.367858187211154   0.629409655642374   1.0
O291   O   0.204241537141490   0.453587535018657   0.550084279827952   1.0
O292   O   0.292910751571231   0.498886227375738   0.683612110463449   1.0
O293   O   0.106726160408307   0.371435743126873   0.609272822153183   1.0
O294   O   0.085336838968126   0.464283808755478   0.468634260866225   1.0
O295   O   0.131432355849316   0.417850176550137   0.294538694324461   1.0
O296   O   0.074873918263531   0.539317649517402   0.307077497677381   1.0
O297   O   0.218016438809238   0.367841177284964   0.173806829529075   1.0
O298   O   0.492490829922810   0.642878563558957   0.242618978668950   1.0
O299   O   0.367859216018913   0.667874250803632   0.296150595888201   1.0
O300   O   0.325692150609010   0.639291023903809   0.483353609255297   1.0
O301   O   0.242389897686137   0.642831984465567   0.324125831258733   1.0
O302   O   0.199565280924763   0.671415005510942   0.524163374108959   1.0
O303   O   0.082301520656813   0.632142159672613   0.451550718199669   1.0
O304   O   0.114860942274191   0.664189835047416   0.253933416075616   1.0
O305   O   0.504309321532010   0.432162724351359   0.416733636840301   1.0
O306   O   0.498467649362198   0.379777177085935   0.567068223646683   1.0


