data_1
_audit_creation_method   'Generated by vasp2cif'
_cell_length_a    20.09
_cell_length_b    19.738
_cell_length_c    13.142
_cell_angle_alpha    90.0
_cell_angle_beta    90.0
_cell_angle_gamma    90.0

_symmetry_space_group_name_H-M    'P 1'
loop_
_atom_site_label
_atom_site_type_symbol
_atom_site_fract_x
_atom_site_fract_y
_atom_site_fract_z
_atom_site_occupancy
C1   C   0.499542168183158   0.500208932715103   0.568729493124116   1.0
C2   C   0.500109372218250   0.435774581962986   0.509998948668138   1.0
C3   C   0.504278437481048   0.317908835620979   0.506313880266605   1.0
H4   H   0.500659991025250   0.546646494863478   0.522568160045689   1.0
H5   H   0.507087398620338   0.421440723331147   0.309655525451587   1.0
H6   H   0.456853897312897   0.503291317858906   0.621749686898711   1.0
H7   H   0.542451529550566   0.500350061062821   0.620719557495250   1.0
H8   H   0.506611237275839   0.278448672333809   0.564083982237298   1.0
H9   H   0.459987253481116   0.313769294412024   0.457404509059026   1.0
H10   H   0.550059230878431   0.319590423525260   0.461360432039792   1.0
Si11   Si   0.422717742594200   0.069762047209631   0.216103866992743   1.0
Si12   Si   0.327623509117073   0.034966314867919   0.379668723787244   1.0
Si13   Si   0.278204615661841   0.054956997995749   0.592687697496218   1.0
Si14   Si   0.124384573121772   0.053357800028124   0.573217114850859   1.0
Si15   Si   0.070967422374434   0.036941839483266   0.351472880829313   1.0
Si16   Si   0.203894304278910   0.070298425652530   0.250158512161898   1.0
Si17   Si   0.421381300225595   0.827397888367059   0.205892820520627   1.0
Si18   Si   0.316751246816832   0.877118611795405   0.362720289583480   1.0
Si19   Si   0.275073125629760   0.829309788759211   0.567543472247188   1.0
Si20   Si   0.118712827623257   0.828708232546725   0.544743542764026   1.0
Si21   Si   0.066328907107892   0.879418147533302   0.328623844393320   1.0
Si22   Si   0.196246987689733   0.828678127919354   0.233056660775527   1.0
Si23   Si   0.078439021269631   0.931336963395206   0.715284351725113   1.0
Si24   Si   0.176303983383885   0.965358388706420   0.875892659478337   1.0
Si25   Si   0.219161280969324   0.946987198855214   0.092646613330637   1.0
Si26   Si   0.374551059053706   0.946454178057633   0.072118976713361   1.0
Si27   Si   0.429754543545642   0.963646273595591   0.851357731014426   1.0
Si28   Si   0.298625912316742   0.931655911738874   0.747499296998253   1.0
Si29   Si   0.079024629227022   0.172710010682022   0.704918901720318   1.0
Si30   Si   0.183817670420677   0.123066689975082   0.862958762545700   1.0
Si31   Si   0.228077716400187   0.173116448310664   0.068830346810300   1.0
Si32   Si   0.382488067497162   0.172050087130186   0.046007364853201   1.0
Si33   Si   0.431857233941628   0.120027000450569   0.831053305128371   1.0
Si34   Si   0.303472561800856   0.171622976964123   0.733197063463610   1.0
Si35   Si   0.922884188265308   0.429591889804556   0.339363643022718   1.0
Si36   Si   0.828631163794967   0.464639206622306   0.175186138218853   1.0
Si37   Si   0.780359827558302   0.446674912805421   0.959589376447102   1.0
Si38   Si   0.625364073027516   0.447745402996753   0.975516638242330   1.0
Si39   Si   0.574215078681538   0.464339755472902   0.197027100741822   1.0
Si40   Si   0.703888183018061   0.431120986817082   0.305035281037593   1.0
Si41   Si   0.919270403763123   0.672614539186033   0.348729411607127   1.0
Si42   Si   0.815510480361660   0.622170026901052   0.191959326463838   1.0
Si43   Si   0.775609810869431   0.672533036255869   0.988871163766672   1.0
Si44   Si   0.619208146384866   0.672863491111355   0.006900846486306   1.0
Si45   Si   0.567518015866176   0.620855517451002   0.216991117375142   1.0
Si46   Si   0.695143434763012   0.672207176845122   0.316606010466559   1.0
Si47   Si   0.578948831482762   0.570937068130566   0.836490573553953   1.0
Si48   Si   0.677323909417922   0.534741595991546   0.674762816298475   1.0
Si49   Si   0.719480296795079   0.554789770573969   0.458360654760797   1.0
Si50   Si   0.874765799116546   0.552241607922944   0.478764891456479   1.0
Si51   Si   0.929279089404966   0.537281002579670   0.701413843262019   1.0
Si52   Si   0.798601597868625   0.570645748700031   0.808136723854565   1.0
Si53   Si   0.579831021349197   0.328105386098356   0.846008213580832   1.0
Si54   Si   0.686417876397265   0.377778672967641   0.692647121571333   1.0
Si55   Si   0.727759304171257   0.328145341470963   0.485165824866437   1.0
Si56   Si   0.881712100154652   0.327744115804697   0.507061900257611   1.0
Si57   Si   0.933686670419663   0.379802147053335   0.716718852209868   1.0
Si58   Si   0.806469304235121   0.328637010398613   0.817945734970889   1.0
Si59   Si   0.579386588902783   0.929681836469949   0.836347175737004   1.0
Si60   Si   0.676961647721651   0.965638206988292   0.674802005527169   1.0
Si61   Si   0.719351193883941   0.945651195757359   0.458446485446529   1.0
Si62   Si   0.874670327398839   0.948050934965418   0.478957455333320   1.0
Si63   Si   0.929278544311135   0.964941494757495   0.702655951758419   1.0
Si64   Si   0.798739931757251   0.929949688619268   0.808277878370941   1.0
Si65   Si   0.685312255953245   0.122127392060142   0.692384624109578   1.0
Si66   Si   0.727560544713564   0.171945388775665   0.485191667657388   1.0
Si67   Si   0.881609976215891   0.172557819379844   0.507031154428549   1.0
Si68   Si   0.933719036923697   0.121986776541870   0.716660868459071   1.0
Si69   Si   0.805885629841771   0.172082828673235   0.815903595263162   1.0
Si70   Si   0.922145926449735   0.070622497998863   0.339427361830964   1.0
Si71   Si   0.828399001215465   0.035378815435946   0.175244034051963   1.0
Si72   Si   0.780615423594200   0.054700927161348   0.958781060372343   1.0
Si73   Si   0.624899592518023   0.050205054529423   0.981886929526017   1.0
Si74   Si   0.571912489365245   0.035336762306323   0.206465731185603   1.0
Si75   Si   0.703738748839110   0.069253023346084   0.304731704070247   1.0
Si76   Si   0.919073823986387   0.827657096025283   0.348785029817895   1.0
Si77   Si   0.815377326205264   0.878291671127819   0.192274764379403   1.0
Si78   Si   0.775338244891924   0.827745893568490   0.988165282688069   1.0
Si79   Si   0.619180234833234   0.827525854839436   0.006674229591762   1.0
Si80   Si   0.567335744895686   0.878708069811506   0.216367436938861   1.0
Si81   Si   0.694227009608637   0.828102239310232   0.316209900128151   1.0
Si82   Si   0.078572625702724   0.569012235601000   0.715274979737166   1.0
Si83   Si   0.176342919991374   0.534859992187193   0.875989063344451   1.0
Si84   Si   0.220488697076135   0.553237611885431   0.092169018063600   1.0
Si85   Si   0.375721159444999   0.553334824552852   0.073875922092447   1.0
Si86   Si   0.428722385186249   0.537538282724334   0.851460573466447   1.0
Si87   Si   0.298138483639836   0.569518748664092   0.746845181814760   1.0
Si88   Si   0.079101925315162   0.327765409083251   0.704823486204641   1.0
Si89   Si   0.184664022500079   0.377388955846090   0.863055853133154   1.0
Si90   Si   0.228275312524285   0.327770775041189   0.070100094549467   1.0
Si91   Si   0.381969399577073   0.327213706465997   0.041391656773549   1.0
Si92   Si   0.433365490713477   0.381361195579394   0.832937941171495   1.0
Si93   Si   0.304265389876889   0.329214108302886   0.736618380192597   1.0
Si94   Si   0.327590064751615   0.465373978951469   0.380447351490962   1.0
Si95   Si   0.279059716709397   0.445747159075119   0.593571622832454   1.0
Si96   Si   0.125043799809211   0.447301480438075   0.571980568989962   1.0
Si97   Si   0.073356286739442   0.462077743078985   0.348150295042255   1.0
Si98   Si   0.205329450337032   0.429920806962479   0.249983981937968   1.0
Si99   Si   0.421166894767552   0.672398360245153   0.205639235650586   1.0
Si100   Si   0.316810214233402   0.622700919890717   0.362562083200272   1.0
Si101   Si   0.275756978786145   0.673983908963205   0.567255698328977   1.0
Si102   Si   0.119143866194539   0.671897082075021   0.545492856066617   1.0
Si103   Si   0.066156648626272   0.620500939669900   0.330469373058653   1.0
Si104   Si   0.195180464307463   0.671472755871828   0.233759011460946   1.0
Si105   Si   0.580313140408753   0.171206800745248   0.847454508191664   1.0
Al106   Al   0.415488834785409   0.426829495977039   0.214439439200215   1.0
O107   O   0.503284647141255   0.074979708885603   0.229272608151558   1.0
O108   O   0.389598493220364   0.074994004738420   0.329204146524795   1.0
O109   O   0.399649731562547   0.135754148577810   0.153648910854214   1.0
O110   O   0.396608717203245   0.003592615572014   0.151691175720940   1.0
O111   O   0.330152118335685   0.041674801720057   0.500604689641969   1.0
O112   O   0.328319692008988   0.957106422141578   0.342630865691547   1.0
O113   O   0.259969815941119   0.067892503071528   0.338837531220897   1.0
O114   O   0.288572164979700   0.132166117573471   0.627822625417976   1.0
O115   O   0.202886828728429   0.046415168918162   0.550049019090942   1.0
O116   O   0.292863473737715   0.002091871285325   0.683399583609344   1.0
O117   O   0.106682875911660   0.128652771462636   0.609322914930487   1.0
O118   O   0.082598023438784   0.038180883175537   0.472225029523198   1.0
O119   O   0.129929014322059   0.078846992383577   0.298490578039906   1.0
O120   O   0.074801788120087   0.960687384832813   0.307071663209262   1.0
O121   O   0.221025809550074   0.128619345771782   0.168695843965028   1.0
O122   O   0.492413309156048   0.857149223072141   0.242619713397897   1.0
O123   O   0.367849941413273   0.832135198719711   0.296149038082539   1.0
O124   O   0.428370457516473   0.750010898991002   0.168568190166484   1.0
O125   O   0.325698429273056   0.860736048591662   0.483305295445822   1.0
O126   O   0.242433880299881   0.857196724709624   0.324147784034962   1.0
O127   O   0.296956375604694   0.752373905479553   0.583436458927285   1.0
O128   O   0.199476533055403   0.828658179520078   0.524137741660840   1.0
O129   O   0.093268005251404   0.750033249263130   0.546314937821953   1.0
O130   O   0.081453532349646   0.867854201876244   0.450058012031155   1.0
O131   O   0.117137654594982   0.839295106191206   0.250333715418539   1.0
O132   O   0.213889627122957   0.750007630160522   0.220385126918853   1.0
O133   O   -0.000548042453763   0.928628382984313   0.731489680524026   1.0
O134   O   0.113864776344311   0.928536287454512   0.824145060963759   1.0
O135   O   0.100436074928462   0.864279935213295   0.653597951206381   1.0
O136   O   0.100370261591328   -0.000011988509800   0.657467483265641   1.0
O137   O   0.167977381458290   0.960714110814226   0.996230475910644   1.0
O138   O   0.171058184448990   0.043020136117958   0.842585052132003   1.0
O139   O   0.246197711513719   0.932139920553028   0.840397261860746   1.0
O140   O   0.210033232332027   0.867885705126373   0.127755413091520   1.0
O141   O   0.295721827391352   0.953587545711812   0.050064572363242   1.0
O142   O   0.206797437660620   -0.000089986753783   0.186949409037291   1.0
O143   O   0.392492672935847   0.871484102775420   0.112956559532676   1.0
O144   O   0.418572805143068   0.960728153211220   0.972237592708752   1.0
O145   O   0.370967623409365   0.921405646878746   0.798101685420943   1.0
O146   O   0.424312224588107   0.039316696080227   0.805628550338230   1.0
O147   O   0.282155864420192   0.867861763136634   0.673852702138317   1.0
O148   O   0.008493038629931   0.143081466630401   0.745920964390214   1.0
O149   O   0.132235446179925   0.167872690150947   0.796111146617491   1.0
O150   O   0.071822016629127   0.250029050316309   0.664905015681886   1.0
O151   O   0.181400276848383   0.139277371983334   0.983268758280535   1.0
O152   O   0.257647596352199   0.142833800025370   0.824104760984680   1.0
O153   O   0.206749611340133   0.250020842222409   0.087093639234073   1.0
O154   O   0.302905724360018   0.167863446802466   0.027819349971434   1.0
O155   O   0.406818416303913   0.249890001585490   0.042589707995400   1.0
O156   O   0.417703394718308   0.132134328550534   0.951551366791431   1.0
O157   O   0.382397500986646   0.160722428336733   0.751652022022728   1.0
O158   O   0.285448008465099   0.250078014394521   0.720374528205676   1.0
O159   O   0.001392056106003   0.428620444055018   0.323694381944027   1.0
O160   O   0.889986646060861   0.425001899521820   0.227724905550009   1.0
O161   O   0.899625823147309   0.364265200432847   0.401887647499412   1.0
O162   O   0.896545250586054   0.496440915698051   0.395987530360324   1.0
O163   O   0.832138373274183   0.460713647923707   0.051668474616084   1.0
O164   O   0.828977634693736   0.542899134550585   0.209314662963515   1.0
O165   O   0.760392240630222   0.432133735751854   0.218067423579252   1.0
O166   O   0.788040618411557   0.369183786839469   0.920661761577208   1.0
O167   O   0.703799000838119   0.453590295793208   0.996037524267813   1.0
O168   O   0.793256683409611   0.499984408020463   0.868585480447193   1.0
O169   O   0.606821022897901   0.371448213909138   0.942559943989138   1.0
O170   O   0.584410437381553   0.464302998677761   0.076465123665488   1.0
O171   O   0.629868566995057   0.421361928075194   0.257022209739562   1.0
O172   O   0.575501601430780   0.540406930675459   0.239001511125849   1.0
O173   O   0.720322134256234   0.369802635214065   0.380317094026864   1.0
O174   O   0.989854928480217   0.645366624292517   0.305668343257120   1.0
O175   O   0.868049781462220   0.667880652836617   0.251675940520721   1.0
O176   O   0.928125811568221   0.750015114312095   0.387056866935801   1.0
O177   O   0.825684714048635   0.639288802205467   0.072223577906491   1.0
O178   O   0.739982451873661   0.639287858414719   0.227704203700683   1.0
O179   O   0.793388407256571   0.750017796625515   0.968510473949899   1.0
O180   O   0.698730545618517   0.671305841724372   0.023781593019876   1.0
O181   O   0.592574292534863   0.750019065367838   0.009241118953307   1.0
O182   O   0.582113907437875   0.632138282241839   0.096166015673967   1.0
O183   O   0.617138599636919   0.660733797882634   0.294320096751596   1.0
O184   O   0.713877684141441   0.750027300912100   0.335163612117407   1.0
O185   O   0.499603884948126   0.571445288571839   0.824084615422812   1.0
O186   O   0.613803514345988   0.571516868877059   0.724181594524329   1.0
O187   O   0.600440669791025   0.635751301271873   0.901862468449491   1.0
O188   O   0.602874347802546   0.503559404875454   0.894418967136232   1.0
O189   O   0.668080680632112   0.539292914212084   0.551568718435467   1.0
O190   O   0.671861994831111   0.457112810015133   0.712951560529828   1.0
O191   O   0.746170360031266   0.567873879626675   0.715168266029159   1.0
O192   O   0.710784502887287   0.632134253754625   0.418408338577967   1.0
O193   O   0.795730516553366   0.546421249439331   0.494561667925318   1.0
O194   O   0.706720891636277   0.500089651589639   0.368581726162102   1.0
O195   O   0.893321604817466   0.628634814731708   0.446227988138285   1.0
O196   O   0.914788624848187   0.535730738253725   0.579787662799625   1.0
O197   O   0.871025497149400   0.578627922488491   0.757489071505716   1.0
O198   O   0.925510604178121   0.459612684388325   0.739027249517550   1.0
O199   O   0.781445555187030   0.632149620927256   0.883319692365451   1.0
O200   O   0.508450495086942   0.357218516017951   0.809680703348654   1.0
O201   O   0.631440622965329   0.332139732043334   0.750141896582068   1.0
O202   O   0.571871470234957   0.249975022121276   0.879664386150551   1.0
O203   O   0.681412518225183   0.360735638774703   0.572264797646298   1.0
O204   O   0.761425549284447   0.360720942015025   0.727844249795652   1.0
O205   O   0.706772093535636   0.250019767727643   0.468510137226461   1.0
O206   O   0.802879214443167   0.332143476072209   0.527765564813173   1.0
O207   O   0.906784145751957   0.250017182236395   0.509265447126459   1.0
O208   O   0.918052584353918   0.367878561089712   0.596127862886952   1.0
O209   O   0.885196189936351   0.335758327875538   0.790722887085832   1.0
O210   O   0.786131280602442   0.250055698199717   0.831545239677902   1.0
O211   O   0.499667273848261   0.928585459365484   0.824103308987072   1.0
O212   O   0.613794584905540   0.928504345717467   0.724179608564238   1.0
O213   O   0.600422591559257   0.864283913351808   0.901851204557951   1.0
O214   O   0.604261742780309   0.996446511896373   0.894581201658901   1.0
O215   O   0.668084430016702   0.960714150468415   0.551571083489950   1.0
O216   O   0.671120937290525   0.042915613219303   0.712974880529386   1.0
O217   O   0.745714813562772   0.932134428178445   0.716563958881537   1.0
O218   O   0.710719296890393   0.867872790662199   0.418389431615435   1.0
O219   O   0.795728377578093   0.953585885835169   0.494561762168476   1.0
O220   O   0.706737242677904   -0.000040930037347   0.368566161855385   1.0
O221   O   0.893314314096242   0.871408618013365   0.446237071259337   1.0
O222   O   0.914795261436665   0.964338910468331   0.579852776095554   1.0
O223   O   0.871125266766489   0.921448826650890   0.757478684034811   1.0
O224   O   0.928172668405380   0.042781685125814   0.742624900629957   1.0
O225   O   0.782847216343479   0.867857445530433   0.883285851812352   1.0
O226   O   0.508156829434641   0.142863021654656   0.811134744497835   1.0
O227   O   0.631925404656949   0.167872837303957   0.751584481589821   1.0
O228   O   0.681410424433518   0.139274538792313   0.572253271859167   1.0
O229   O   0.760043566102644   0.139291532531695   0.727793430769213   1.0
O230   O   0.802876148162874   0.167865194324384   0.527764315765629   1.0
O231   O   0.918046634452878   0.132132371923477   0.596116222138554   1.0
O232   O   0.884477224827346   0.164353655761387   0.790289853003234   1.0
O233   O   0.000552185042329   0.071435188507294   0.324092829168068   1.0
O234   O   0.889980110030363   0.075005864930132   0.227701412873573   1.0
O235   O   0.899595599041661   0.135778464764056   0.401899344805940   1.0
O236   O   0.896541518373631   0.003565727764096   0.395990177232067   1.0
O237   O   0.832088438919477   0.039295167966626   0.051640947437243   1.0
O238   O   0.829019476057361   0.957160075007562   0.212965321034661   1.0
O239   O   0.759991305427590   0.067880086730568   0.216701649539285   1.0
O240   O   0.789299081484371   0.132140090831204   0.918380662426783   1.0
O241   O   0.704273297477737   0.046414212726049   0.994607940136446   1.0
O242   O   0.793275993744641   0.000082942227812   0.868604529335339   1.0
O243   O   0.609994495378414   0.125041854319071   0.938912523576403   1.0
O244   O   0.586087941557441   0.035713127666995   0.086875820771997   1.0
O245   O   0.629924801978291   0.078871828979617   0.257245572139523   1.0
O246   O   0.577403806344672   0.957308766301238   0.243142597667343   1.0
O247   O   0.720239208730428   0.130395578425858   0.380168401742517   1.0
O248   O   0.990016544372826   0.853594649079262   0.305603680255480   1.0
O249   O   0.868040457521621   0.832129537238076   0.251671566330592   1.0
O250   O   0.824291231969314   0.860728899545337   0.072260843972393   1.0
O251   O   0.739973934746699   0.860717492650523   0.227728067040641   1.0
O252   O   0.698698412364994   0.828762304301008   0.023780174439727   1.0
O253   O   0.582049519987799   0.867871930952700   0.096116276744239   1.0
O254   O   0.615568913071269   0.835630834937530   0.290301672282907   1.0
O255   O   -0.000502754924999   0.571430884293367   0.731485472304747   1.0
O256   O   0.113857477874045   0.571491437998153   0.824145591618303   1.0
O257   O   0.100446397306496   0.635757305165194   0.653608346005037   1.0
O258   O   0.099649759152569   0.500000779608616   0.657444400155174   1.0
O259   O   0.168026139677155   0.539295887064543   0.996219416273560   1.0
O260   O   0.171064185505455   0.457033543329389   0.842580520700187   1.0
O261   O   0.246230273892809   0.567871578840394   0.840419998272470   1.0
O262   O   0.210020292904139   0.632128717816621   0.127829164907865   1.0
O263   O   0.297080266268678   0.546423513277918   0.050050182019549   1.0
O264   O   0.207529659025075   0.500114919430605   0.186932254738253   1.0
O265   O   0.392517068520271   0.628607828994692   0.112948953194570   1.0
O266   O   0.418570921019074   0.539285411166297   0.972162334384649   1.0
O267   O   0.371426750896893   0.580672731486408   0.794427241576728   1.0
O268   O   0.425698573448740   0.460733202264071   0.805622381242482   1.0
O269   O   0.281436316094001   0.632160145711230   0.672251007801341   1.0
O270   O   0.008444128656385   0.357112247003097   0.745877106309410   1.0
O271   O   0.132346493150882   0.332140851946454   0.796075068076379   1.0
O272   O   0.181402207901079   0.360729506342203   0.983304335780592   1.0
O273   O   0.260940924256882   0.360718905289458   0.829255633291889   1.0
O274   O   0.302862890224582   0.332140917538634   0.027765085165437   1.0
O275   O   0.417165880273455   0.367875667728768   0.950078193792808   1.0
O276   O   0.382375600962371   0.339261444855409   0.762602130998006   1.0
O277   O   0.503890034137621   0.425003612613077   0.229374916064198   1.0
O278   O   0.386173937605862   0.421451397388486   0.335254708392202   1.0
O279   O   0.400452904834475   0.357136315295978   0.146440982499825   1.0
O280   O   0.399657092156686   0.499982825876198   0.153785985880944   1.0
O281   O   0.328987459679475   0.464282327517850   0.502003472997685   1.0
O282   O   0.329025442942121   0.542973852863709   0.342626774271283   1.0
O283   O   0.259965012498144   0.432124688585984   0.338887862344845   1.0
O284   O   0.289302292537631   0.367858907732968   0.629410262145885   1.0
O285   O   0.204240109194935   0.453588174694074   0.550086705309756   1.0
O286   O   0.292909310499649   0.498892326777770   0.683622228239898   1.0
O287   O   0.106722595089173   0.371438610880318   0.609274394133121   1.0
O288   O   0.085333859473895   0.464286115054870   0.468635888954158   1.0
O289   O   0.131431372416257   0.417851083529900   0.294541874208438   1.0
O290   O   0.074869349120393   0.539318477330061   0.307077074194639   1.0
O291   O   0.218011802143727   0.367842125857917   0.173818343835824   1.0
O292   O   0.492484649290286   0.642880073542203   0.242620775862138   1.0
O293   O   0.367853475718508   0.667875372205313   0.296151096357332   1.0
O294   O   0.325691638414016   0.639292143949012   0.483358876127581   1.0
O295   O   0.242387941132411   0.642834587236975   0.324126748743868   1.0
O296   O   0.199562022509300   0.671417559871919   0.524164016023121   1.0
O297   O   0.082297519741972   0.632143167190802   0.451553662255853   1.0
O298   O   0.114855336611518   0.664192990260808   0.253932832079471   1.0
O299   O   0.504308559537181   0.432164364452283   0.416729788258637   1.0
O300   O   0.498464890880989   0.379787657924996   0.567058824669491   1.0


