data_1
_audit_creation_method   'Generated by vasp2cif'
_cell_length_a    20.09
_cell_length_b    19.738
_cell_length_c    13.142
_cell_angle_alpha    90.0
_cell_angle_beta    90.0
_cell_angle_gamma    90.0

_symmetry_space_group_name_H-M    'P 1'
loop_
_atom_site_label
_atom_site_type_symbol
_atom_site_fract_x
_atom_site_fract_y
_atom_site_fract_z
_atom_site_occupancy
C1   C   0.504073829096825   0.696503060028540   0.496247836302289   1.0
C2   C   0.504281629241290   0.632061365157581   0.561421021834265   1.0
C3   C   0.501070031387521   0.564698680064325   0.501693526848548   1.0
C4   C   0.499204498566157   0.500739126248217   0.568580279789320   1.0
C5   C   0.507179098934961   0.757501442350393   0.567925283419539   1.0
C6   C   0.500059062569493   0.435773934482425   0.510053725763726   1.0
C7   C   0.504271922700688   0.317920241427305   0.506362236375929   1.0
H8   H   0.505728690279643   0.807123835208159   0.527938037053004   1.0
H9   H   0.507101799792636   0.421442481287752   0.309682057401731   1.0
H10   H   0.456692619659721   0.503404858913207   0.621973633995528   1.0
H11   H   0.542517782819991   0.500012425884644   0.620835528735242   1.0
H12   H   0.548920777952938   0.699588104156013   0.447835051531246   1.0
H13   H   0.459186833790385   0.700016206504071   0.448324180049655   1.0
H14   H   0.548533848517573   0.632280576000634   0.610570698179224   1.0
H15   H   0.460561859718507   0.635729865935089   0.612872110163329   1.0
H16   H   0.457755249633667   0.564395364543730   0.449866443476630   1.0
H17   H   0.546922680070862   0.564118335345744   0.456143232474073   1.0
H18   H   0.464917631055225   0.757703182471169   0.620924316108920   1.0
H19   H   0.553756456245373   0.757142263785719   0.612880583542845   1.0
H20   H   0.506612592619113   0.278438049783780   0.564089310346258   1.0
H21   H   0.459992690350146   0.313766857357827   0.457411799141019   1.0
H22   H   0.550057010605061   0.319588127936020   0.461366565501071   1.0
Si23   Si   0.422735435679517   0.069738556342910   0.216136695547097   1.0
Si24   Si   0.327630471190755   0.034962683508421   0.379697179532947   1.0
Si25   Si   0.278207761417602   0.054954471586567   0.592709045375234   1.0
Si26   Si   0.124385307024781   0.053358435478940   0.573232821615828   1.0
Si27   Si   0.070958822297713   0.036942674374760   0.351488235222330   1.0
Si28   Si   0.203890489365734   0.070289949325195   0.250187546992531   1.0
Si29   Si   0.421402878643399   0.827394874746062   0.205920335825123   1.0
Si30   Si   0.316772880544911   0.877116467603241   0.362749896540965   1.0
Si31   Si   0.275089328628693   0.829324617074557   0.567554676538680   1.0
Si32   Si   0.118717094533782   0.828717996646210   0.544759957039007   1.0
Si33   Si   0.066321890461164   0.879422418570443   0.328637961187974   1.0
Si34   Si   0.196248092352024   0.828693596234051   0.233086691004513   1.0
Si35   Si   0.078438480579372   0.931340102587581   0.715299741337778   1.0
Si36   Si   0.176307148477866   0.965356101182785   0.875900998446623   1.0
Si37   Si   0.219169090562718   0.946986624848839   0.092661765911372   1.0
Si38   Si   0.374559969224154   0.946444380190684   0.072124674533201   1.0
Si39   Si   0.429774621940170   0.963629715677627   0.851357001409739   1.0
Si40   Si   0.298643205117280   0.931653615039788   0.747516478986044   1.0
Si41   Si   0.079015413615784   0.172707855444947   0.704927809670930   1.0
Si42   Si   0.183816387716078   0.123062052114858   0.862952273081323   1.0
Si43   Si   0.228064638692590   0.173089417818463   0.068847843514083   1.0
Si44   Si   0.382483126562907   0.171971255159451   0.046023873421305   1.0
Si45   Si   0.431876069303120   0.120016593650702   0.831023546717801   1.0
Si46   Si   0.303481411967807   0.171620416208593   0.733200319158047   1.0
Si47   Si   0.922868457753575   0.429593328713131   0.339375535680919   1.0
Si48   Si   0.828620044504834   0.464640788498104   0.175198555803364   1.0
Si49   Si   0.780354516150912   0.446682943061614   0.959603722650108   1.0
Si50   Si   0.625363270928033   0.447758574248652   0.975517783558678   1.0
Si51   Si   0.574258970111156   0.464383651507825   0.197081338926024   1.0
Si52   Si   0.703874817627581   0.431116401346472   0.305064372657444   1.0
Si53   Si   0.919259683554449   0.672620114926170   0.348739964680923   1.0
Si54   Si   0.815506069554698   0.622171137582486   0.191966245949849   1.0
Si55   Si   0.775601646591864   0.672536585466554   0.988884963255592   1.0
Si56   Si   0.619195835025809   0.672861056324973   0.006914906883159   1.0
Si57   Si   0.567481864298173   0.620849469542866   0.217042603936361   1.0
Si58   Si   0.695138771515444   0.672205545133232   0.316580695180427   1.0
Si59   Si   0.578921087577158   0.570925198159491   0.836503765936603   1.0
Si60   Si   0.677318122346522   0.534687707982094   0.674815190182230   1.0
Si61   Si   0.719480336544039   0.554780959559402   0.458385109637885   1.0
Si62   Si   0.874760179425851   0.552244828602295   0.478783199735879   1.0
Si63   Si   0.929263808769239   0.537282891559505   0.701432530172909   1.0
Si64   Si   0.798588164109623   0.570650711951855   0.808150550562884   1.0
Si65   Si   0.579847620765995   0.328119885019552   0.845984579169173   1.0
Si66   Si   0.686393907569650   0.377790148325072   0.692637587968108   1.0
Si67   Si   0.727733272956492   0.328154829505772   0.485189026212909   1.0
Si68   Si   0.881697359996297   0.327744045535017   0.507076596574562   1.0
Si69   Si   0.933671941508653   0.379803094699670   0.716731504002601   1.0
Si70   Si   0.806452299191527   0.328645944372671   0.817958081516617   1.0
Si71   Si   0.579387398865328   0.929660006289122   0.836335089121445   1.0
Si72   Si   0.676948640698889   0.965628014186071   0.674816096368232   1.0
Si73   Si   0.719340334388482   0.945648545030216   0.458471144587444   1.0
Si74   Si   0.874662858976336   0.948055140825696   0.478975853281421   1.0
Si75   Si   0.929272729587020   0.964941594188039   0.702673822934540   1.0
Si76   Si   0.798733290483349   0.929950943545701   0.808292234395716   1.0
Si77   Si   0.685309931055506   0.122125791169569   0.692392968798764   1.0
Si78   Si   0.727552751952949   0.171957049509821   0.485208176736118   1.0
Si79   Si   0.881604364179498   0.172561513865330   0.507040766640979   1.0
Si80   Si   0.933710871107007   0.121988011169173   0.716672012441139   1.0
Si81   Si   0.805880807015768   0.172086701274654   0.815913031318114   1.0
Si82   Si   0.922136678519431   0.070623926182975   0.339443486731890   1.0
Si83   Si   0.828393391500375   0.035380584160421   0.175259155206898   1.0
Si84   Si   0.780613782921212   0.054701550445137   0.958792635922905   1.0
Si85   Si   0.624900855813915   0.050198041341169   0.981888428549099   1.0
Si86   Si   0.571934517365394   0.035335310376112   0.206481379819326   1.0
Si87   Si   0.703745678319020   0.069255335512545   0.304764442123924   1.0
Si88   Si   0.919068026982376   0.827663613623287   0.348795949200701   1.0
Si89   Si   0.815371399797126   0.878294071978049   0.192287926637183   1.0
Si90   Si   0.775333792958395   0.827745758834280   0.988179761091296   1.0
Si91   Si   0.619175440594475   0.827519794599200   0.006675232276563   1.0
Si92   Si   0.567341130369266   0.878698893450440   0.216384266607330   1.0
Si93   Si   0.694216240381781   0.828103785366536   0.316233839539885   1.0
Si94   Si   0.078563057547046   0.569018740670863   0.715290570379200   1.0
Si95   Si   0.176347540507232   0.534872627205724   0.875979607857820   1.0
Si96   Si   0.220494032387032   0.553262216881883   0.092152803294989   1.0
Si97   Si   0.375720087266906   0.553411610695318   0.073756983335740   1.0
Si98   Si   0.428778919210952   0.537551308846751   0.851370514417580   1.0
Si99   Si   0.298182191645171   0.569523988711661   0.746871961239789   1.0
Si100   Si   0.079084880553806   0.327763406046230   0.704833423253811   1.0
Si101   Si   0.184658465791191   0.377397868576980   0.863029265515287   1.0
Si102   Si   0.228214145206949   0.327761227848384   0.070094877156893   1.0
Si103   Si   0.381938056200571   0.327155601378308   0.041138107885403   1.0
Si104   Si   0.433419014986469   0.381416259245671   0.832779686815315   1.0
Si105   Si   0.304282473427291   0.329210481709414   0.736616557579834   1.0
Si106   Si   0.327494034176329   0.465480910589744   0.380612037072060   1.0
Si107   Si   0.279065651926254   0.445751269682352   0.593658410870558   1.0
Si108   Si   0.125037927048941   0.447302959551124   0.572012477884541   1.0
Si109   Si   0.073324915823569   0.462093754506665   0.348184149558563   1.0
Si110   Si   0.205271769867085   0.429937086792195   0.249935013370800   1.0
Si111   Si   0.421271293325986   0.672410930756415   0.205686885299180   1.0
Si112   Si   0.316794054820168   0.622789233177022   0.362594026102037   1.0
Si113   Si   0.275758216149903   0.673990766580764   0.567298060275920   1.0
Si114   Si   0.119144180226676   0.671906557495176   0.545514185653672   1.0
Si115   Si   0.066143785620560   0.620511550395605   0.330489468881474   1.0
Si116   Si   0.195169660114856   0.671495944922201   0.233765419772328   1.0
Si117   Si   0.580328213038005   0.171214633923623   0.847460125092893   1.0
Al118   Al   0.415773330158048   0.426964487610378   0.214479463492172   1.0
O119   O   0.503286541181777   0.074979752088811   0.229274062633249   1.0
O120   O   0.389598052105256   0.074994110204272   0.329205550358944   1.0
O121   O   0.399652221117858   0.135753816931075   0.153650583768542   1.0
O122   O   0.396608597986454   0.003592920828014   0.151691284432106   1.0
O123   O   0.330152104162045   0.041677984767033   0.500612152944940   1.0
O124   O   0.328321364724488   0.957106299303642   0.342631733444454   1.0
O125   O   0.259970134867323   0.067892418367408   0.338838966223998   1.0
O126   O   0.288572228998154   0.132166405781911   0.627824108671287   1.0
O127   O   0.202887097301897   0.046415100101443   0.550050360208971   1.0
O128   O   0.292863798721866   0.002091426636529   0.683401220887970   1.0
O129   O   0.106683122245995   0.128653456648903   0.609324395305265   1.0
O130   O   0.082598488003638   0.038181054727104   0.472226587598610   1.0
O131   O   0.129927549312681   0.078853956694602   0.298494386977223   1.0
O132   O   0.074802846155752   0.960687328176979   0.307072906676169   1.0
O133   O   0.221027071339597   0.128618907965560   0.168698192235227   1.0
O134   O   0.492414590647041   0.857149462619862   0.242621849507186   1.0
O135   O   0.367851132578285   0.832135181094736   0.296150680428903   1.0
O136   O   0.428368733801004   0.750011160802391   0.168568923859103   1.0
O137   O   0.325698999201500   0.860736032461671   0.483307534433989   1.0
O138   O   0.242437362721514   0.857196963488799   0.324149821434701   1.0
O139   O   0.296958528884438   0.752374334676264   0.583437527665111   1.0
O140   O   0.199478487070226   0.828657716519780   0.524139199007350   1.0
O141   O   0.093268793580341   0.750033804337847   0.546315401313088   1.0
O142   O   0.081453767944990   0.867854152511343   0.450059913986437   1.0
O143   O   0.117137934635543   0.839295093322334   0.250335486678791   1.0
O144   O   0.213891181497564   0.750008447757982   0.220385436130564   1.0
O145   O   -0.000555192151205   0.928631738775299   0.731494300038640   1.0
O146   O   0.113867703102290   0.928536482337231   0.824146576305349   1.0
O147   O   0.100437525723647   0.864280672932710   0.653599826535533   1.0
O148   O   0.100371563825425   -0.000012100860462   0.657468402040307   1.0
O149   O   0.167976879878359   0.960714068341976   0.996231421788911   1.0
O150   O   0.171060085564451   0.043019933720493   0.842585710488951   1.0
O151   O   0.246198684245650   0.932139994151377   0.840398961219602   1.0
O152   O   0.210033190677185   0.867885674164694   0.127757403651114   1.0
O153   O   0.295721998392165   0.953587676411612   0.050065963444552   1.0
O154   O   0.206797362037636   -0.000089101316174   0.186950659297421   1.0
O155   O   0.392495522627404   0.871483338840893   0.112958632311116   1.0
O156   O   0.418572719000625   0.960728394632627   0.972238792824069   1.0
O157   O   0.370969073550466   0.921405561900356   0.798102334435225   1.0
O158   O   0.424312171678709   0.039316498991154   0.805630399123422   1.0
O159   O   0.282157267772566   0.867861884167040   0.673854006234884   1.0
O160   O   0.008493089064649   0.143081894500075   0.745922420978755   1.0
O161   O   0.132235934522279   0.167872643632860   0.796111973782285   1.0
O162   O   0.071824896548508   0.250029594005972   0.664906084960575   1.0
O163   O   0.181400298781423   0.139277669566276   0.983269772282390   1.0
O164   O   0.257647793969764   0.142833900704797   0.824105961737353   1.0
O165   O   0.206752914989728   0.250020510511892   0.087094468975369   1.0
O166   O   0.302905866640784   0.167864023962283   0.027820849895300   1.0
O167   O   0.406815021272077   0.249889861996388   0.042595949149413   1.0
O168   O   0.417704872681898   0.132134689797132   0.951552987050014   1.0
O169   O   0.382397718953018   0.160722426766551   0.751652751303075   1.0
O170   O   0.285446390183668   0.250079790578780   0.720376000881122   1.0
O171   O   0.001392072195552   0.428619688937183   0.323695432589938   1.0
O172   O   0.889986934766462   0.425002059489363   0.227726268927434   1.0
O173   O   0.899628123575745   0.364265197782959   0.401889191186456   1.0
O174   O   0.896545866863740   0.496441451540695   0.395988521812887   1.0
O175   O   0.832139636095283   0.460713496993703   0.051669509127916   1.0
O176   O   0.828979586415321   0.542899729456189   0.209315452347856   1.0
O177   O   0.760392773258989   0.432134182856092   0.218069957539750   1.0
O178   O   0.788038735886086   0.369185415364148   0.920665486923213   1.0
O179   O   0.703799140585843   0.453590356386005   0.996038325064075   1.0
O180   O   0.793257933812900   0.499984478618134   0.868586194347792   1.0
O181   O   0.606822714676044   0.371448452192601   0.942561048633715   1.0
O182   O   0.584409764835238   0.464301644511005   0.076468991092935   1.0
O183   O   0.629870055517482   0.421360147919194   0.257023300068111   1.0
O184   O   0.575502898027776   0.540408833510013   0.238998944365227   1.0
O185   O   0.720327312672123   0.369808100170958   0.380323075831904   1.0
O186   O   0.989854688466841   0.645366515616167   0.305669426797962   1.0
O187   O   0.868050428047952   0.667880754041357   0.251676611019376   1.0
O188   O   0.928126479544735   0.750015458019770   0.387057696121118   1.0
O189   O   0.825684835860414   0.639288790379354   0.072225321786478   1.0
O190   O   0.739982732710278   0.639287801696841   0.227705203093661   1.0
O191   O   0.793389195073393   0.750018230337207   0.968511166139700   1.0
O192   O   0.698730848349438   0.671305641570623   0.023783443351686   1.0
O193   O   0.592576518885818   0.750019144582728   0.009242263663962   1.0
O194   O   0.582114158988067   0.632138177851332   0.096167892081268   1.0
O195   O   0.617141144579657   0.660733323950373   0.294312634627785   1.0
O196   O   0.713878010413199   0.750026830907823   0.335165055239295   1.0
O197   O   0.499608130703410   0.571445912866947   0.824088422620955   1.0
O198   O   0.613828378917662   0.571508335262695   0.724198873542258   1.0
O199   O   0.600441271400084   0.635751727797658   0.901861907874319   1.0
O200   O   0.602874291798387   0.503559395958949   0.894420708386458   1.0
O201   O   0.668076268076731   0.539294296680821   0.551574072147795   1.0
O202   O   0.671864870708937   0.457110715836640   0.712953519294207   1.0
O203   O   0.746171067727418   0.567873789601228   0.715167957143211   1.0
O204   O   0.710781735652074   0.632134690918048   0.418410507493004   1.0
O205   O   0.795730662226714   0.546421340273449   0.494563222012970   1.0
O206   O   0.706721312999726   0.500091463709237   0.368583191744425   1.0
O207   O   0.893322274791715   0.628634955616644   0.446229104750173   1.0
O208   O   0.914789963268600   0.535730462946391   0.579788855899710   1.0
O209   O   0.871026457895205   0.578628314079880   0.757490857900122   1.0
O210   O   0.925510843519282   0.459612647221181   0.739027863204380   1.0
O211   O   0.781445528699216   0.632149906807124   0.883321639639919   1.0
O212   O   0.508451995785198   0.357215241944159   0.809684754217371   1.0
O213   O   0.631441022302156   0.332139628008688   0.750143669614215   1.0
O214   O   0.571871639763336   0.249976011009171   0.879665193454670   1.0
O215   O   0.681412587467883   0.360735993120066   0.572266893948397   1.0
O216   O   0.761425311633328   0.360721192429605   0.727845035388662   1.0
O217   O   0.706775044944759   0.250020664910783   0.468511333482712   1.0
O218   O   0.802879024183449   0.332143629167282   0.527766502333782   1.0
O219   O   0.906786128759181   0.250018307824474   0.509265731438112   1.0
O220   O   0.918053099720426   0.367878774579755   0.596128314797149   1.0
O221   O   0.885196289512409   0.335758023615771   0.790724064143848   1.0
O222   O   0.786132259976731   0.250056430288140   0.831545419111882   1.0
O223   O   0.499668515716768   0.928585395090967   0.824104175771382   1.0
O224   O   0.613794456317697   0.928503434452163   0.724180309994576   1.0
O225   O   0.600423655827040   0.864283558219708   0.901851892344649   1.0
O226   O   0.604261593689280   0.996446423211480   0.894581811173164   1.0
O227   O   0.668083275294528   0.960714114578334   0.551571642355079   1.0
O228   O   0.671124240406960   0.042915063345762   0.712975406822612   1.0
O229   O   0.745715050423404   0.932134469525160   0.716565195277079   1.0
O230   O   0.710719529855542   0.867873056331096   0.418390937162966   1.0
O231   O   0.795728470479079   0.953585985144379   0.494562852712154   1.0
O232   O   0.706738851951264   -0.000041236702887   0.368567232739250   1.0
O233   O   0.893314628504515   0.871409351194768   0.446238407371395   1.0
O234   O   0.914796095702732   0.964339040602139   0.579853877310455   1.0
O235   O   0.871126342596493   0.921448775801499   0.757480698208354   1.0
O236   O   0.928174173533920   0.042782165292345   0.742625346123580   1.0
O237   O   0.782847255638455   0.867857433988521   0.883287651271692   1.0
O238   O   0.508156995849417   0.142863335766318   0.811145064424445   1.0
O239   O   0.631926028177968   0.167872727539115   0.751585917444116   1.0
O240   O   0.681410407841634   0.139274432972795   0.572255029708550   1.0
O241   O   0.760043713161419   0.139291600287264   0.727795057598859   1.0
O242   O   0.802876399350209   0.167864839164628   0.527765548515960   1.0
O243   O   0.918047319064552   0.132132393001086   0.596117314721695   1.0
O244   O   0.884477792253598   0.164354272361298   0.790291750806911   1.0
O245   O   0.000557892989143   0.071441075403879   0.324091262945793   1.0
O246   O   0.889980337064679   0.075005946924233   0.227703243576568   1.0
O247   O   0.899596557554218   0.135779077240259   0.401900480713440   1.0
O248   O   0.896542127136249   0.003564982144337   0.395991546007598   1.0
O249   O   0.832089847688198   0.039295469584316   0.051642076970216   1.0
O250   O   0.829020155018402   0.957160482423478   0.212966049599828   1.0
O251   O   0.759991248754834   0.067880194016275   0.216703250231668   1.0
O252   O   0.789299781629554   0.132140112098730   0.918381379121831   1.0
O253   O   0.704273116665230   0.046414189509335   0.994609396534911   1.0
O254   O   0.793276856359001   0.000083982561300   0.868605767806100   1.0
O255   O   0.609994403180862   0.125041822890398   0.938914076941632   1.0
O256   O   0.586088810620979   0.035713456724736   0.086877533831119   1.0
O257   O   0.629926357129674   0.078885726214370   0.257259574307905   1.0
O258   O   0.577405529996261   0.957307429085921   0.243145079533508   1.0
O259   O   0.720241522914778   0.130394640298968   0.380171928205878   1.0
O260   O   0.990016645994877   0.853594526599819   0.305604880781328   1.0
O261   O   0.868040839493068   0.832129557458934   0.251671771542711   1.0
O262   O   0.824291308085936   0.860729078738716   0.072262794389425   1.0
O263   O   0.739973875386765   0.860717300462191   0.227730366280342   1.0
O264   O   0.698698632067013   0.828763186462077   0.023782086529830   1.0
O265   O   0.582050070806439   0.867871955508039   0.096118185196091   1.0
O266   O   0.615568468980687   0.835627536483322   0.290305175293608   1.0
O267   O   -0.000505479350535   0.571431074670153   0.731486514686561   1.0
O268   O   0.113859260023847   0.571491386041232   0.824146822783257   1.0
O269   O   0.100447576994491   0.635757211778691   0.653609878740742   1.0
O270   O   0.099651978971513   0.500001698720666   0.657446287810924   1.0
O271   O   0.168026556394682   0.539295832810004   0.996220379960129   1.0
O272   O   0.171066483525219   0.457034571895151   0.842581592335331   1.0
O273   O   0.246226727440657   0.567872079605469   0.840415471416354   1.0
O274   O   0.210020285000086   0.632128954410295   0.127831671128555   1.0
O275   O   0.297080275831387   0.546423350757710   0.050051871122609   1.0
O276   O   0.207530239064716   0.500116822334437   0.186934268422779   1.0
O277   O   0.392520910065873   0.628608383775701   0.112953796249920   1.0
O278   O   0.418570980495849   0.539285168676360   0.972159986249075   1.0
O279   O   0.371427284458506   0.580673766364566   0.794430149613916   1.0
O280   O   0.425697794217230   0.460733890327435   0.805627381873089   1.0
O281   O   0.281436524690822   0.632160056767448   0.672253099803484   1.0
O282   O   0.008443880269850   0.357113287468193   0.745878621146644   1.0
O283   O   0.132347145645036   0.332140721330365   0.796077069420261   1.0
O284   O   0.181402155760304   0.360729780430821   0.983304488997529   1.0
O285   O   0.260940310146198   0.360718954170156   0.829257406976167   1.0
O286   O   0.302862333832828   0.332141421252395   0.027770014631137   1.0
O287   O   0.417166151079497   0.367875782921571   0.950076310220138   1.0
O288   O   0.382373979333487   0.339261371094918   0.762604456756332   1.0
O289   O   0.503895612557051   0.425003779919862   0.229367542134593   1.0
O290   O   0.386164422778793   0.421451897533359   0.335255691439283   1.0
O291   O   0.400450010783050   0.357141097341344   0.146439758142295   1.0
O292   O   0.399651540216648   0.499982311485571   0.153785310807855   1.0
O293   O   0.328978570782190   0.464283332995784   0.502014739338228   1.0
O294   O   0.329027924430884   0.542977272672759   0.342627012411998   1.0
O295   O   0.259966332248840   0.432124023900281   0.338887456291999   1.0
O296   O   0.289302502424285   0.367858920180260   0.629410936438452   1.0
O297   O   0.204240659260356   0.453588210178323   0.550087499451217   1.0
O298   O   0.292911175401482   0.498893841173672   0.683628719197848   1.0
O299   O   0.106723420030193   0.371438529921372   0.609275545773968   1.0
O300   O   0.085336803842399   0.464286129237040   0.468637759456203   1.0
O301   O   0.131431260862897   0.417851358076028   0.294544600820150   1.0
O302   O   0.074872704064453   0.539317698228780   0.307078951735930   1.0
O303   O   0.218013841375313   0.367842273398807   0.173818823831663   1.0
O304   O   0.492485212554562   0.642878569460718   0.242615808325051   1.0
O305   O   0.367853948872993   0.667875530063476   0.296150165363300   1.0
O306   O   0.325691404377062   0.639292295557049   0.483361480215987   1.0
O307   O   0.242387583621064   0.642833849335241   0.324127368970705   1.0
O308   O   0.199563286736378   0.671417514752710   0.524165130549702   1.0
O309   O   0.082298739390849   0.632143137237814   0.451554424892337   1.0
O310   O   0.114857368184837   0.664192176351665   0.253935527776792   1.0
O311   O   0.504307955782070   0.432162512712509   0.416727000225360   1.0
O312   O   0.498467580772552   0.379762542857028   0.567104253082948   1.0


