data_1
_audit_creation_method   'Generated by vasp2cif'
_cell_length_a    20.09
_cell_length_b    19.738
_cell_length_c    13.142
_cell_angle_alpha    90.0
_cell_angle_beta    90.0
_cell_angle_gamma    90.0

_symmetry_space_group_name_H-M    'P 1'
loop_
_atom_site_label
_atom_site_type_symbol
_atom_site_fract_x
_atom_site_fract_y
_atom_site_fract_z
_atom_site_occupancy
C1   C   0.504094771446817   0.696505754100175   0.496311731933052   1.0
C2   C   0.504274674751129   0.632097413758221   0.561549069468327   1.0
C3   C   0.501054363015830   0.564740170839191   0.501718725505953   1.0
C4   C   0.499217484789671   0.500764833380881   0.568582540335478   1.0
C5   C   0.500057602715072   0.435754034056467   0.510051468153104   1.0
C6   C   0.504278182773238   0.317906323390994   0.506319849389136   1.0
H7   H   0.507044005574957   0.740825270045320   0.549776890370071   1.0
H8   H   0.507087060910926   0.421441897705180   0.309660149488061   1.0
H9   H   0.456696391825499   0.503370638001874   0.621931174735067   1.0
H10   H   0.542518420021661   0.499999885377171   0.620827525508310   1.0
H11   H   0.548926512244367   0.699776720366393   0.447886737644149   1.0
H12   H   0.459260805612400   0.700414873269596   0.448639294596191   1.0
H13   H   0.548533144414815   0.632257002840822   0.610613176868617   1.0
H14   H   0.460561473563984   0.635706690609049   0.612894302788807   1.0
H15   H   0.457754779767994   0.564386953780532   0.449826955507295   1.0
H16   H   0.546921407062792   0.564138620213035   0.456140364616612   1.0
H17   H   0.506613846108735   0.278435025022966   0.564073774120251   1.0
H18   H   0.459988882181089   0.313766219560875   0.457398582495591   1.0
H19   H   0.550058461610260   0.319584936247006   0.461350907106190   1.0
Si20   Si   0.422714149600508   0.069759994660193   0.216090847736958   1.0
Si21   Si   0.327624051438006   0.034961626582105   0.379651787988675   1.0
Si22   Si   0.278206301455294   0.054953027071025   0.592669417978021   1.0
Si23   Si   0.124383630210503   0.053352999899548   0.573202469511464   1.0
Si24   Si   0.070960733840502   0.036939210178721   0.351457666633728   1.0
Si25   Si   0.203895139883635   0.070294577228063   0.250135121762925   1.0
Si26   Si   0.421387961053456   0.827389449567291   0.205892183974333   1.0
Si27   Si   0.316754662841731   0.877114730065012   0.362709401507052   1.0
Si28   Si   0.275076219194526   0.829311291550171   0.567523798038477   1.0
Si29   Si   0.118710560551987   0.828702495915847   0.544728343276901   1.0
Si30   Si   0.066326594554306   0.879413357725795   0.328609806037574   1.0
Si31   Si   0.196247005636453   0.828674888365162   0.233042032144058   1.0
Si32   Si   0.078442515685566   0.931333312234949   0.715270902365417   1.0
Si33   Si   0.176301951764872   0.965353529747161   0.875877231467663   1.0
Si34   Si   0.219160340377704   0.946984017093199   0.092630725219362   1.0
Si35   Si   0.374551060374431   0.946449767094556   0.072109338798354   1.0
Si36   Si   0.429747398687211   0.963645946294290   0.851347844938221   1.0
Si37   Si   0.298620932017148   0.931651362201083   0.747482363001950   1.0
Si38   Si   0.079021821391723   0.172702347171288   0.704907074692423   1.0
Si39   Si   0.183818281277130   0.123061081495921   0.862943035754837   1.0
Si40   Si   0.228078410238432   0.173112012499573   0.068816473404161   1.0
Si41   Si   0.382489888431445   0.172052087170873   0.045994515311074   1.0
Si42   Si   0.431854879982586   0.120027893291458   0.831039490633448   1.0
Si43   Si   0.303472982534031   0.171619825349368   0.733179798650732   1.0
Si44   Si   0.922883748950708   0.429579503378789   0.339349998235742   1.0
Si45   Si   0.828625113014431   0.464623594984384   0.175167340351287   1.0
Si46   Si   0.780352951496608   0.446661240170870   0.959576299187491   1.0
Si47   Si   0.625354833631897   0.447727926279083   0.975514691393773   1.0
Si48   Si   0.574187213704557   0.464330915235739   0.197027724609171   1.0
Si49   Si   0.703868981504149   0.431092812427154   0.305007732661473   1.0
Si50   Si   0.919268933909116   0.672609488602092   0.348714514459036   1.0
Si51   Si   0.815520961699574   0.622154621979284   0.191934891655535   1.0
Si52   Si   0.775605379324763   0.672528121472443   0.988855396743897   1.0
Si53   Si   0.619201098708646   0.672853662627992   0.006897154207103   1.0
Si54   Si   0.567460391719012   0.620819760950212   0.216959963784067   1.0
Si55   Si   0.695165781358870   0.672200910583300   0.316536963012783   1.0
Si56   Si   0.578899953944884   0.570881900323525   0.836549499679779   1.0
Si57   Si   0.677357886738990   0.534648139793527   0.674808928665706   1.0
Si58   Si   0.719509640923984   0.554761778824606   0.458332384480608   1.0
Si59   Si   0.874777519218678   0.552233460673033   0.478748007219004   1.0
Si60   Si   0.929284032852062   0.537270291622052   0.701408271083994   1.0
Si61   Si   0.798607915127615   0.570635076436577   0.808134860305077   1.0
Si62   Si   0.579807608196355   0.328102014193363   0.845984361707282   1.0
Si63   Si   0.686396122614927   0.377747720810552   0.692627086840277   1.0
Si64   Si   0.727747911633993   0.328134873507967   0.485156317972897   1.0
Si65   Si   0.881707324329335   0.327734880739215   0.507053266809107   1.0
Si66   Si   0.933683888652425   0.379787723395483   0.716704894086008   1.0
Si67   Si   0.806462466224747   0.328626485382717   0.817926832052301   1.0
Si68   Si   0.579380859698842   0.929681735227523   0.836342596489980   1.0
Si69   Si   0.676960788338098   0.965636071025458   0.674784796239069   1.0
Si70   Si   0.719347567209226   0.945649430163217   0.458430015080145   1.0
Si71   Si   0.874669617825644   0.948045044591160   0.478940874015239   1.0
Si72   Si   0.929278832351952   0.964935795102972   0.702641820769003   1.0
Si73   Si   0.798738139497725   0.929945613817078   0.808265316145894   1.0
Si74   Si   0.685304561313010   0.122125888822895   0.692370226676160   1.0
Si75   Si   0.727554855942021   0.171939780808895   0.485175940297468   1.0
Si76   Si   0.881606664548080   0.172550431411648   0.507016394992355   1.0
Si77   Si   0.933716274198446   0.121981671483270   0.716648470401413   1.0
Si78   Si   0.805881941912608   0.172075826265235   0.815889733995429   1.0
Si79   Si   0.922135961379180   0.070617682092843   0.339415022880967   1.0
Si80   Si   0.828394362177567   0.035375010764824   0.175228514272055   1.0
Si81   Si   0.780612336928564   0.054696294548486   0.958767158701648   1.0
Si82   Si   0.624896232511492   0.050204855109919   0.981876586747874   1.0
Si83   Si   0.571901748123872   0.035332428679649   0.206454253615159   1.0
Si84   Si   0.703733017525485   0.069249634229028   0.304713614809142   1.0
Si85   Si   0.919071642546736   0.827652016777869   0.348769984944413   1.0
Si86   Si   0.815376097435313   0.878288338117840   0.192258363165954   1.0
Si87   Si   0.775336176276488   0.827741465584951   0.988151514199780   1.0
Si88   Si   0.619175875172097   0.827520044351082   0.006670737256147   1.0
Si89   Si   0.567323176423325   0.878702443541956   0.216365432016365   1.0
Si90   Si   0.694217143933356   0.828107872058218   0.316196417580650   1.0
Si91   Si   0.078578045850331   0.568999844314777   0.715262250756396   1.0
Si92   Si   0.176342180358002   0.534849640490926   0.875973313882789   1.0
Si93   Si   0.220492530719640   0.553223570104393   0.092145521218572   1.0
Si94   Si   0.375732067103144   0.553315990963934   0.073861923721289   1.0
Si95   Si   0.428730782044790   0.537504127432656   0.851412209154888   1.0
Si96   Si   0.298144284970831   0.569488870708787   0.746835458342949   1.0
Si97   Si   0.079100634866394   0.327756474816448   0.704813729553042   1.0
Si98   Si   0.184669095755733   0.377377491188157   0.863041306480597   1.0
Si99   Si   0.228281822980207   0.327762181474408   0.070081672347332   1.0
Si100   Si   0.381980293898763   0.327218502342097   0.041391058200378   1.0
Si101   Si   0.433365973687031   0.381366987234161   0.832897095538357   1.0
Si102   Si   0.304277009188997   0.329208216674761   0.736605135517498   1.0
Si103   Si   0.327591176896191   0.465324494073869   0.380439820589321   1.0
Si104   Si   0.279072699845111   0.445733225631186   0.593566607953363   1.0
Si105   Si   0.125046480291588   0.447291937677356   0.571967915254070   1.0
Si106   Si   0.073355644290783   0.462066346916060   0.348139277456789   1.0
Si107   Si   0.205331046044887   0.429909186355248   0.249969562077590   1.0
Si108   Si   0.421212838325579   0.672373818617177   0.205583007980001   1.0
Si109   Si   0.316749841444830   0.622680069349557   0.362512190788884   1.0
Si110   Si   0.275739902902532   0.673978361632197   0.567256971954912   1.0
Si111   Si   0.119135684083427   0.671888105688045   0.545483651839096   1.0
Si112   Si   0.066152745422344   0.620489734230020   0.330455526271118   1.0
Si113   Si   0.195170588790128   0.671470520843254   0.233717671851587   1.0
Si114   Si   0.580306792645176   0.171204968285827   0.847439656579750   1.0
Al115   Al   0.415498687566338   0.426814724418144   0.214420541380279   1.0
O116   O   0.503283995380595   0.074979402644607   0.229270908840994   1.0
O117   O   0.389599212181516   0.074993814738362   0.329202862266400   1.0
O118   O   0.399650047490139   0.135753290322723   0.153647815848740   1.0
O119   O   0.396608721977888   0.003592029459558   0.151690116138174   1.0
O120   O   0.330152241745589   0.041671567929244   0.500598364920223   1.0
O121   O   0.328318927909108   0.957104883943230   0.342629601226405   1.0
O122   O   0.259969676203565   0.067892162366027   0.338835992224022   1.0
O123   O   0.288572101193701   0.132165880544171   0.627820546353372   1.0
O124   O   0.202886835978702   0.046415010592559   0.550047678848581   1.0
O125   O   0.292863368960745   0.002091070626078   0.683398163278183   1.0
O126   O   0.106683449558301   0.128651592399102   0.609321907994930   1.0
O127   O   0.082597446683807   0.038179918692222   0.472222485769219   1.0
O128   O   0.129928680156887   0.078844980901594   0.298489500783214   1.0
O129   O   0.074800932408135   0.960686321031398   0.307070614721730   1.0
O130   O   0.221025319416015   0.128618698870058   0.168694776646414   1.0
O131   O   0.492413027987478   0.857148196877849   0.242619537596414   1.0
O132   O   0.367850627530196   0.832135186583221   0.296148712219605   1.0
O133   O   0.428370555628487   0.750009978389242   0.168567736229409   1.0
O134   O   0.325698693668699   0.860735770201211   0.483303911225649   1.0
O135   O   0.242433288680849   0.857195707318908   0.324146755231265   1.0
O136   O   0.296957298010131   0.752372426802042   0.583435053956054   1.0
O137   O   0.199476597153665   0.828657120336333   0.524136864819593   1.0
O138   O   0.093267975788000   0.750032166903185   0.546313574634296   1.0
O139   O   0.081453456419285   0.867853866237531   0.450056197455613   1.0
O140   O   0.117137293984195   0.839294649744723   0.250331733499782   1.0
O141   O   0.213889960853192   0.750006644530695   0.220383858933042   1.0
O142   O   -0.000551253973544   0.928626779369305   0.731490499501576   1.0
O143   O   0.113864235607257   0.928535365003611   0.824144064015672   1.0
O144   O   0.100436494806637   0.864278765880859   0.653597027608746   1.0
O145   O   0.100370475778482   -0.000012439238130   0.657466572882492   1.0
O146   O   0.167976969922117   0.960713365388870   0.996229191042208   1.0
O147   O   0.171059093368978   0.043018443245295   0.842583861881270   1.0
O148   O   0.246197590355843   0.932139744155854   0.840396309123375   1.0
O149   O   0.210033229768299   0.867885500906828   0.127753815312053   1.0
O150   O   0.295721660815934   0.953587320764184   0.050063213037174   1.0
O151   O   0.206798013596276   -0.000091144305514   0.186947736192948   1.0
O152   O   0.392493255421297   0.871483112936799   0.112955909225194   1.0
O153   O   0.418572856243544   0.960727902317258   0.972235668450258   1.0
O154   O   0.370967012319846   0.921404259971610   0.798100595912943   1.0
O155   O   0.424312181900031   0.039316687989413   0.805627060594120   1.0
O156   O   0.282155753067312   0.867861308552544   0.673851074515953   1.0
O157   O   0.008492483331598   0.143079294959941   0.745918977446149   1.0
O158   O   0.132234670107691   0.167872237227800   0.796110409041927   1.0
O159   O   0.071821429365870   0.250027667262394   0.664903688687894   1.0
O160   O   0.181400182795611   0.139277059169383   0.983266600032687   1.0
O161   O   0.257647774500306   0.142833118722710   0.824103697212903   1.0
O162   O   0.206749111293262   0.250019735493671   0.087092789060023   1.0
O163   O   0.302905817542902   0.167863085404371   0.027817877097474   1.0
O164   O   0.406815875063090   0.249889439250802   0.042590717841041   1.0
O165   O   0.417702595101409   0.132133651248386   0.951551682359734   1.0
O166   O   0.382397435209097   0.160722195511402   0.751651237602116   1.0
O167   O   0.285448207710306   0.250077795397932   0.720373735082671   1.0
O168   O   0.001391478426657   0.428618456780389   0.323692633921306   1.0
O169   O   0.889986478764776   0.425001621090674   0.227723068913875   1.0
O170   O   0.899625482165129   0.364264652725048   0.401886808066108   1.0
O171   O   0.896546131672693   0.496440583664114   0.395986353991720   1.0
O172   O   0.832137509434065   0.460713142439357   0.051667268011230   1.0
O173   O   0.828977072175549   0.542897530815890   0.209313328800633   1.0
O174   O   0.760391621009524   0.432133628306874   0.218066399400701   1.0
O175   O   0.788044322105911   0.369179942745950   0.920657112970719   1.0
O176   O   0.703798956056044   0.453590142859899   0.996036927646521   1.0
O177   O   0.793256473879421   0.499983907507579   0.868584834253393   1.0
O178   O   0.606821342103094   0.371446949145129   0.942558381870004   1.0
O179   O   0.584410884636305   0.464301955854656   0.076463504601752   1.0
O180   O   0.629867711732833   0.421361950419486   0.257020613101941   1.0
O181   O   0.575503467875539   0.540405705643600   0.238997837135253   1.0
O182   O   0.720319346502418   0.369797760445530   0.380312098288393   1.0
O183   O   0.989854492642002   0.645365473278016   0.305666840216987   1.0
O184   O   0.868045732237241   0.667879045303378   0.251677226369173   1.0
O185   O   0.928125525900427   0.750014086229790   0.387055893315829   1.0
O186   O   0.825684655135837   0.639288698289576   0.072221458849900   1.0
O187   O   0.739982809707383   0.639287340623953   0.227700974112658   1.0
O188   O   0.793388425199175   0.750016694183054   0.968509727837544   1.0
O189   O   0.698729863834984   0.671304615964513   0.023780263372601   1.0
O190   O   0.592574093675362   0.750017969132794   0.009239997218089   1.0
O191   O   0.582117807307435   0.632137311654083   0.096163584473433   1.0
O192   O   0.617140319415178   0.660732792560326   0.294311961432215   1.0
O193   O   0.713875740838186   0.750025825768779   0.335162918022190   1.0
O194   O   0.499603878029305   0.571445292548411   0.824084977915343   1.0
O195   O   0.613826085637513   0.571507374369193   0.724195023041566   1.0
O196   O   0.600439705580106   0.635749736157535   0.901859248498950   1.0
O197   O   0.602874607617083   0.503558746221732   0.894419008223487   1.0
O198   O   0.668076286814330   0.539294184017074   0.551572059804874   1.0
O199   O   0.671863761036098   0.457108037688018   0.712951834754996   1.0
O200   O   0.746170836791548   0.567873531551247   0.715166517461250   1.0
O201   O   0.710780642870420   0.632134102268591   0.418408911981761   1.0
O202   O   0.795730589086858   0.546421024436711   0.494561159835174   1.0
O203   O   0.706718671264279   0.500089008526704   0.368580582274210   1.0
O204   O   0.893320993484631   0.628634114474312   0.446227148246228   1.0
O205   O   0.914788329193251   0.535730193898594   0.579786492184843   1.0
O206   O   0.871026265302724   0.578627046633380   0.757488224983532   1.0
O207   O   0.925510260751552   0.459610939003807   0.739025645380530   1.0
O208   O   0.781445375147929   0.632149226784485   0.883317216375291   1.0
O209   O   0.508450275816022   0.357217222632776   0.809679807087983   1.0
O210   O   0.631440470862631   0.332139321455482   0.750141589189766   1.0
O211   O   0.571871982100131   0.249974212146446   0.879663018010288   1.0
O212   O   0.681412508085187   0.360735526297303   0.572262512500633   1.0
O213   O   0.761425130948414   0.360720990590380   0.727842282927416   1.0
O214   O   0.706772278934129   0.250019026075662   0.468509373570162   1.0
O215   O   0.802878968817753   0.332143202049983   0.527763886128660   1.0
O216   O   0.906784351499233   0.250016753451390   0.509264183806881   1.0
O217   O   0.918052693544748   0.367878230345356   0.596126263276926   1.0
O218   O   0.885195164352923   0.335757561425211   0.790722081967026   1.0
O219   O   0.786130662406335   0.250054094225032   0.831543410423224   1.0
O220   O   0.499666355336929   0.928584510120781   0.824102336247715   1.0
O221   O   0.613793843682221   0.928502881469547   0.724178574093786   1.0
O222   O   0.600422346473504   0.864283132791437   0.901849967066270   1.0
O223   O   0.604261805829635   0.996446210847266   0.894579124617728   1.0
O224   O   0.668084792268907   0.960713761797755   0.551569431379788   1.0
O225   O   0.671121589604587   0.042914161459583   0.712973562876221   1.0
O226   O   0.745714729006147   0.932134052856270   0.716562348246311   1.0
O227   O   0.710719042450472   0.867872277516392   0.418388506468824   1.0
O228   O   0.795728290435442   0.953585719511523   0.494560315131187   1.0
O229   O   0.706736897164790   -0.000041102358690   0.368565232911322   1.0
O230   O   0.893314765012463   0.871407377388516   0.446235744997993   1.0
O231   O   0.914794618289617   0.964337639227787   0.579851071486399   1.0
O232   O   0.871124915388787   0.921448154253849   0.757478617344183   1.0
O233   O   0.928172176841505   0.042780480698044   0.742623695216538   1.0
O234   O   0.782847059577188   0.867857259342772   0.883284359255799   1.0
O235   O   0.508156923328180   0.142862216698159   0.811128976566994   1.0
O236   O   0.631925022655886   0.167872356777314   0.751583482827135   1.0
O237   O   0.681410310309448   0.139274194429254   0.572251669103617   1.0
O238   O   0.760043281411372   0.139291207673131   0.727791224293327   1.0
O239   O   0.802876226182073   0.167864841652015   0.527762836351704   1.0
O240   O   0.918046693226042   0.132132252487568   0.596115230538189   1.0
O241   O   0.884477072662740   0.164351873505924   0.790288215728373   1.0
O242   O   0.000556557070212   0.071433457711336   0.324091272794703   1.0
O243   O   0.889979786392198   0.075005660787454   0.227699171762676   1.0
O244   O   0.899595480805037   0.135777397084923   0.401897822207925   1.0
O245   O   0.896541477078557   0.003565091973354   0.395989487376094   1.0
O246   O   0.832087591575337   0.039295039790156   0.051639697986640   1.0
O247   O   0.829019133775644   0.957159109654185   0.212964263782343   1.0
O248   O   0.759991352491871   0.067879802380146   0.216700371361543   1.0
O249   O   0.789299077871206   0.132139901676673   0.918379896349753   1.0
O250   O   0.704273010253201   0.046413802872703   0.994606542011010   1.0
O251   O   0.793276231310311   0.000081830988924   0.868603567676792   1.0
O252   O   0.609994418554915   0.125041637794137   0.938910977998884   1.0
O253   O   0.586087903674379   0.035712391908732   0.086874878807798   1.0
O254   O   0.629923623057382   0.078867087051075   0.257240932995964   1.0
O255   O   0.577405709591757   0.957306375385260   0.243141982307706   1.0
O256   O   0.720239881550078   0.130393539118157   0.380166494461919   1.0
O257   O   0.990016463243915   0.853594222845964   0.305602455470382   1.0
O258   O   0.868040280371517   0.832129386761524   0.251670680142900   1.0
O259   O   0.824291062690006   0.860728566018252   0.072258608472095   1.0
O260   O   0.739973796601846   0.860717232785168   0.227726917898320   1.0
O261   O   0.698697953957478   0.828760308380220   0.023777944906305   1.0
O262   O   0.582049367719345   0.867871558783313   0.096115569872648   1.0
O263   O   0.615568191260030   0.835626859579792   0.290301719884277   1.0
O264   O   -0.000503749812480   0.571430085685255   0.731485297252052   1.0
O265   O   0.113857296724490   0.571490832697554   0.824144518915368   1.0
O266   O   0.100446414373335   0.635756752847022   0.653607696619893   1.0
O267   O   0.099650192680308   0.499999622808217   0.657442955313154   1.0
O268   O   0.168026332916373   0.539295744734637   0.996218395947048   1.0
O269   O   0.171063829312212   0.457032231624658   0.842579437325472   1.0
O270   O   0.246224832717391   0.567871810848649   0.840412737661015   1.0
O271   O   0.210020224784313   0.632128334991384   0.127827030666446   1.0
O272   O   0.297080303944202   0.546423262591168   0.050048680276693   1.0
O273   O   0.207527707054059   0.500116081673574   0.186933463341788   1.0
O274   O   0.392515149580913   0.628607329635379   0.112947563668113   1.0
O275   O   0.418570929821613   0.539285429944452   0.972157781427014   1.0
O276   O   0.371426713865431   0.580673573451801   0.794425644819906   1.0
O277   O   0.425698292431736   0.460732546797126   0.805622073640589   1.0
O278   O   0.281436619387479   0.632159888189052   0.672249727117839   1.0
O279   O   0.008444033705919   0.357110892683631   0.745875650563059   1.0
O280   O   0.132346347548679   0.332140551248610   0.796074801766858   1.0
O281   O   0.181402068063658   0.360729337684893   0.983302585444470   1.0
O282   O   0.260942391204730   0.360718769126098   0.829253639254595   1.0
O283   O   0.302862762501216   0.332140632313200   0.027763465977339   1.0
O284   O   0.417165776321742   0.367875430422885   0.950073559768232   1.0
O285   O   0.382375152582123   0.339261126049050   0.762601070663896   1.0
O286   O   0.503890557235563   0.425003496637084   0.229372113770175   1.0
O287   O   0.386174589043564   0.421451447743046   0.335253472118273   1.0
O288   O   0.400452472963391   0.357134849962327   0.146439866030618   1.0
O289   O   0.399657828559364   0.499982908953270   0.153786736628433   1.0
O290   O   0.328987738640912   0.464284036029336   0.502001772859056   1.0
O291   O   0.329025387140108   0.542972844710362   0.342626214947524   1.0
O292   O   0.259964523849289   0.432124327212415   0.338886179648447   1.0
O293   O   0.289301638543306   0.367858507230516   0.629409648740688   1.0
O294   O   0.204240229910443   0.453588023174313   0.550085406088474   1.0
O295   O   0.292908343891390   0.498891252877652   0.683616407041336   1.0
O296   O   0.106722177876805   0.371437890100726   0.609273567215050   1.0
O297   O   0.085332671130620   0.464285589105413   0.468634680824234   1.0
O298   O   0.131431222506407   0.417850838179157   0.294540681329405   1.0
O299   O   0.074868911719029   0.539318077578164   0.307076559697817   1.0
O300   O   0.218012045619403   0.367841753080532   0.173816995006427   1.0
O301   O   0.492483815270736   0.642878949941670   0.242615708874734   1.0
O302   O   0.367854532397363   0.667875374394267   0.296151177166798   1.0
O303   O   0.325691695233291   0.639291820932808   0.483355019754041   1.0
O304   O   0.242383544618668   0.642834856302216   0.324124366603471   1.0
O305   O   0.199561353833305   0.671416869553828   0.524162566536435   1.0
O306   O   0.082297475111661   0.632142711863687   0.451552203534369   1.0
O307   O   0.114854322817919   0.664192338750196   0.253931481904788   1.0
O308   O   0.504308293276623   0.432163055593017   0.416736044296569   1.0
O309   O   0.498466368553961   0.379769352835524   0.567088679562155   1.0


